*SPEF "IEEE 1481-1998"
*DESIGN "completeAdderSynchronous"
*DATE "Sat Jun 15 15:00:27 2019"
*VENDOR "Cadence Design Systems, Inc."
*PROGRAM "Innovus"
*VERSION "17.11-s080_1"
*DESIGN_FLOW "COUPLING C" "PIN_CAP NONE" "NAME_SCOPE LOCAL"
*DIVIDER /
*DELIMITER :
*BUS_DELIMITER []
*T_UNIT 1 NS
*C_UNIT 1 PF
*R_UNIT 1 OHM
*L_UNIT 1 HENRY

// MMMC spef file for corner 'standard'

*NAME_MAP

*1 completeAdder_1/FE_OCPN4_FE_OFN1_n103
*2 completeAdder_1/FE_OCPN3_FE_OFN1_n103
*3 completeAdder_1/FE_OCPN2_FE_OFN1_n103
*4 completeAdder_1/FE_OFN1_n103
*5 FE_OFN0_n102
*6 A_tle[31]
*7 A_tle[30]
*8 A_tle[29]
*9 A_tle[28]
*10 A_tle[27]
*11 A_tle[26]
*12 A_tle[25]
*13 A_tle[24]
*14 A_tle[23]
*15 A_tle[22]
*16 A_tle[21]
*17 A_tle[20]
*18 A_tle[19]
*19 A_tle[18]
*20 A_tle[17]
*21 A_tle[16]
*22 A_tle[15]
*23 A_tle[14]
*24 A_tle[13]
*25 A_tle[12]
*26 A_tle[11]
*27 A_tle[10]
*28 A_tle[9]
*29 A_tle[8]
*30 A_tle[7]
*31 A_tle[6]
*32 A_tle[5]
*33 A_tle[4]
*34 A_tle[3]
*35 A_tle[2]
*36 A_tle[1]
*37 A_tle[0]
*38 B_tle[31]
*39 B_tle[30]
*40 B_tle[29]
*41 B_tle[28]
*42 B_tle[27]
*43 B_tle[26]
*44 B_tle[25]
*45 B_tle[24]
*46 B_tle[23]
*47 B_tle[22]
*48 B_tle[21]
*49 B_tle[20]
*50 B_tle[19]
*51 B_tle[18]
*52 B_tle[17]
*53 B_tle[16]
*54 B_tle[15]
*55 B_tle[14]
*56 B_tle[13]
*57 B_tle[12]
*58 B_tle[11]
*59 B_tle[10]
*60 B_tle[9]
*61 B_tle[8]
*62 B_tle[7]
*63 B_tle[6]
*64 B_tle[5]
*65 B_tle[4]
*66 B_tle[3]
*67 B_tle[2]
*68 B_tle[1]
*69 B_tle[0]
*70 Sum_tle[31]
*71 Sum_tle[30]
*72 Sum_tle[29]
*73 Sum_tle[28]
*74 Sum_tle[27]
*75 Sum_tle[26]
*76 Sum_tle[25]
*77 Sum_tle[24]
*78 Sum_tle[23]
*79 Sum_tle[22]
*80 Sum_tle[21]
*81 Sum_tle[20]
*82 Sum_tle[19]
*83 Sum_tle[18]
*84 Sum_tle[17]
*85 Sum_tle[16]
*86 Sum_tle[15]
*87 Sum_tle[14]
*88 Sum_tle[13]
*89 Sum_tle[12]
*90 Sum_tle[11]
*91 Sum_tle[10]
*92 Sum_tle[9]
*93 Sum_tle[8]
*94 Sum_tle[7]
*95 Sum_tle[6]
*96 Sum_tle[5]
*97 Sum_tle[4]
*98 Sum_tle[3]
*99 Sum_tle[2]
*100 Sum_tle[1]
*101 Sum_tle[0]
*102 Cin_tle
*103 Clk
*104 rst
*105 Cout_tle
*106 coutFromCAtoReg
*107 n102
*108 n103
*109 n104
*110 n105
*111 n106
*112 n107
*113 n108
*114 n109
*115 n110
*116 n111
*117 n112
*118 n113
*119 n114
*120 n115
*121 n116
*122 n117
*123 n118
*124 n119
*125 n120
*126 n121
*127 n122
*128 n123
*129 n124
*130 n125
*131 n126
*132 n127
*133 n128
*134 n129
*135 n130
*136 n131
*137 n132
*138 n133
*139 n134
*140 n135
*141 n136
*142 Qa[31]
*143 Qa[30]
*144 Qa[29]
*145 Qa[28]
*146 Qa[27]
*147 Qa[26]
*148 Qa[25]
*149 Qa[24]
*150 Qa[23]
*151 Qa[22]
*152 Qa[21]
*153 Qa[20]
*154 Qa[19]
*155 Qa[18]
*156 Qa[17]
*157 Qa[16]
*158 Qa[15]
*159 Qa[14]
*160 Qa[13]
*161 Qa[12]
*162 Qa[11]
*163 Qa[10]
*164 Qa[9]
*165 Qa[8]
*166 Qa[7]
*167 Qa[6]
*168 Qa[5]
*169 Qa[4]
*170 Qa[3]
*171 Qa[2]
*172 Qa[1]
*173 Qa[0]
*174 Qb[31]
*175 Qb[30]
*176 Qb[29]
*177 Qb[28]
*178 Qb[27]
*179 Qb[26]
*180 Qb[25]
*181 Qb[24]
*182 Qb[23]
*183 Qb[22]
*184 Qb[21]
*185 Qb[20]
*186 Qb[19]
*187 Qb[18]
*188 Qb[17]
*189 Qb[16]
*190 Qb[15]
*191 Qb[14]
*192 Qb[13]
*193 Qb[12]
*194 Qb[11]
*195 Qb[10]
*196 Qb[9]
*197 Qb[8]
*198 Qb[7]
*199 Qb[6]
*200 Qb[5]
*201 Qb[4]
*202 Qb[3]
*203 Qb[2]
*204 Qb[1]
*205 Qb[0]
*206 sumFromCAtoReg[31]
*207 sumFromCAtoReg[30]
*208 sumFromCAtoReg[29]
*209 sumFromCAtoReg[28]
*210 sumFromCAtoReg[27]
*211 sumFromCAtoReg[26]
*212 sumFromCAtoReg[25]
*213 sumFromCAtoReg[24]
*214 sumFromCAtoReg[23]
*215 sumFromCAtoReg[22]
*216 sumFromCAtoReg[21]
*217 sumFromCAtoReg[20]
*218 sumFromCAtoReg[19]
*219 sumFromCAtoReg[18]
*220 sumFromCAtoReg[17]
*221 sumFromCAtoReg[16]
*222 sumFromCAtoReg[15]
*223 sumFromCAtoReg[14]
*224 sumFromCAtoReg[13]
*225 sumFromCAtoReg[12]
*226 sumFromCAtoReg[11]
*227 sumFromCAtoReg[10]
*228 sumFromCAtoReg[9]
*229 sumFromCAtoReg[8]
*230 sumFromCAtoReg[7]
*231 sumFromCAtoReg[6]
*232 sumFromCAtoReg[5]
*233 sumFromCAtoReg[4]
*234 sumFromCAtoReg[3]
*235 sumFromCAtoReg[2]
*236 sumFromCAtoReg[1]
*237 sumFromCAtoReg[0]
*238 completeAdder_1/net2822
*239 completeAdder_1/net3138
*240 completeAdder_1/n3
*241 completeAdder_1/n4
*242 completeAdder_1/n7
*243 completeAdder_1/n8
*244 completeAdder_1/B_XORed[31]
*245 completeAdder_1/B_XORed[30]
*246 completeAdder_1/B_XORed[29]
*247 completeAdder_1/B_XORed[28]
*248 completeAdder_1/B_XORed[27]
*249 completeAdder_1/B_XORed[26]
*250 completeAdder_1/B_XORed[25]
*251 completeAdder_1/B_XORed[24]
*252 completeAdder_1/B_XORed[23]
*253 completeAdder_1/B_XORed[22]
*254 completeAdder_1/B_XORed[21]
*255 completeAdder_1/B_XORed[20]
*256 completeAdder_1/B_XORed[19]
*257 completeAdder_1/B_XORed[18]
*258 completeAdder_1/B_XORed[17]
*259 completeAdder_1/B_XORed[15]
*260 completeAdder_1/B_XORed[14]
*261 completeAdder_1/B_XORed[13]
*262 completeAdder_1/B_XORed[10]
*263 completeAdder_1/B_XORed[9]
*264 completeAdder_1/B_XORed[8]
*265 completeAdder_1/B_XORed[7]
*266 completeAdder_1/B_XORed[6]
*267 completeAdder_1/B_XORed[5]
*268 completeAdder_1/B_XORed[4]
*269 completeAdder_1/B_XORed[3]
*270 completeAdder_1/B_XORed[2]
*271 completeAdder_1/B_XORed[1]
*272 completeAdder_1/B_XORed[0]
*273 completeAdder_1/carryConnect[6]
*274 completeAdder_1/carryConnect[5]
*275 completeAdder_1/carryConnect[4]
*276 completeAdder_1/carryConnect[3]
*277 completeAdder_1/carryConnect[2]
*278 completeAdder_1/carryConnect[1]
*279 completeAdder_1/carryConnect[0]
*280 completeAdder_1/ST/sigMatrix\[0\]\[63\]
*281 completeAdder_1/ST/sigMatrix\[0\]\[62\]
*282 completeAdder_1/ST/sigMatrix\[0\]\[61\]
*283 completeAdder_1/ST/sigMatrix\[0\]\[60\]
*284 completeAdder_1/ST/sigMatrix\[0\]\[59\]
*285 completeAdder_1/ST/sigMatrix\[0\]\[58\]
*286 completeAdder_1/ST/sigMatrix\[0\]\[57\]
*287 completeAdder_1/ST/sigMatrix\[0\]\[56\]
*288 completeAdder_1/ST/sigMatrix\[0\]\[55\]
*289 completeAdder_1/ST/sigMatrix\[0\]\[54\]
*290 completeAdder_1/ST/sigMatrix\[0\]\[53\]
*291 completeAdder_1/ST/sigMatrix\[0\]\[52\]
*292 completeAdder_1/ST/sigMatrix\[0\]\[51\]
*293 completeAdder_1/ST/sigMatrix\[0\]\[50\]
*294 completeAdder_1/ST/sigMatrix\[0\]\[49\]
*295 completeAdder_1/ST/sigMatrix\[0\]\[48\]
*296 completeAdder_1/ST/sigMatrix\[0\]\[47\]
*297 completeAdder_1/ST/sigMatrix\[0\]\[46\]
*298 completeAdder_1/ST/sigMatrix\[0\]\[45\]
*299 completeAdder_1/ST/sigMatrix\[0\]\[44\]
*300 completeAdder_1/ST/sigMatrix\[0\]\[43\]
*301 completeAdder_1/ST/sigMatrix\[0\]\[42\]
*302 completeAdder_1/ST/sigMatrix\[0\]\[41\]
*303 completeAdder_1/ST/sigMatrix\[0\]\[40\]
*304 completeAdder_1/ST/sigMatrix\[0\]\[39\]
*305 completeAdder_1/ST/sigMatrix\[0\]\[38\]
*306 completeAdder_1/ST/sigMatrix\[0\]\[37\]
*307 completeAdder_1/ST/sigMatrix\[0\]\[36\]
*308 completeAdder_1/ST/sigMatrix\[0\]\[35\]
*309 completeAdder_1/ST/sigMatrix\[0\]\[34\]
*310 completeAdder_1/ST/sigMatrix\[0\]\[33\]
*311 completeAdder_1/ST/sigMatrix\[0\]\[32\]
*312 completeAdder_1/ST/sigMatrix\[0\]\[31\]
*313 completeAdder_1/ST/sigMatrix\[0\]\[30\]
*314 completeAdder_1/ST/sigMatrix\[0\]\[29\]
*315 completeAdder_1/ST/sigMatrix\[0\]\[28\]
*316 completeAdder_1/ST/sigMatrix\[0\]\[27\]
*317 completeAdder_1/ST/sigMatrix\[0\]\[26\]
*318 completeAdder_1/ST/sigMatrix\[0\]\[25\]
*319 completeAdder_1/ST/sigMatrix\[0\]\[24\]
*320 completeAdder_1/ST/sigMatrix\[0\]\[23\]
*321 completeAdder_1/ST/sigMatrix\[0\]\[22\]
*322 completeAdder_1/ST/sigMatrix\[0\]\[21\]
*323 completeAdder_1/ST/sigMatrix\[0\]\[20\]
*324 completeAdder_1/ST/sigMatrix\[0\]\[19\]
*325 completeAdder_1/ST/sigMatrix\[0\]\[18\]
*326 completeAdder_1/ST/sigMatrix\[0\]\[17\]
*327 completeAdder_1/ST/sigMatrix\[0\]\[16\]
*328 completeAdder_1/ST/sigMatrix\[0\]\[15\]
*329 completeAdder_1/ST/sigMatrix\[0\]\[14\]
*330 completeAdder_1/ST/sigMatrix\[0\]\[13\]
*331 completeAdder_1/ST/sigMatrix\[0\]\[12\]
*332 completeAdder_1/ST/sigMatrix\[0\]\[11\]
*333 completeAdder_1/ST/sigMatrix\[0\]\[10\]
*334 completeAdder_1/ST/sigMatrix\[0\]\[9\]
*335 completeAdder_1/ST/sigMatrix\[0\]\[8\]
*336 completeAdder_1/ST/sigMatrix\[0\]\[7\]
*337 completeAdder_1/ST/sigMatrix\[0\]\[6\]
*338 completeAdder_1/ST/sigMatrix\[0\]\[5\]
*339 completeAdder_1/ST/sigMatrix\[0\]\[4\]
*340 completeAdder_1/ST/sigMatrix\[0\]\[3\]
*341 completeAdder_1/ST/sigMatrix\[0\]\[2\]
*342 completeAdder_1/ST/sigMatrix\[0\]\[0\]
*343 completeAdder_1/ST/sigMatrix\[1\]\[63\]
*344 completeAdder_1/ST/sigMatrix\[1\]\[62\]
*345 completeAdder_1/ST/sigMatrix\[1\]\[55\]
*346 completeAdder_1/ST/sigMatrix\[1\]\[54\]
*347 completeAdder_1/ST/sigMatrix\[1\]\[47\]
*348 completeAdder_1/ST/sigMatrix\[1\]\[46\]
*349 completeAdder_1/ST/sigMatrix\[1\]\[39\]
*350 completeAdder_1/ST/sigMatrix\[1\]\[38\]
*351 completeAdder_1/ST/sigMatrix\[1\]\[31\]
*352 completeAdder_1/ST/sigMatrix\[1\]\[30\]
*353 completeAdder_1/ST/sigMatrix\[1\]\[22\]
*354 completeAdder_1/ST/sigMatrix\[1\]\[15\]
*355 completeAdder_1/ST/sigMatrix\[1\]\[14\]
*356 completeAdder_1/ST/sigMatrix\[2\]\[63\]
*357 completeAdder_1/ST/sigMatrix\[2\]\[62\]
*358 completeAdder_1/ST/sigMatrix\[2\]\[47\]
*359 completeAdder_1/ST/sigMatrix\[2\]\[46\]
*360 completeAdder_1/ST/sigMatrix\[2\]\[31\]
*361 completeAdder_1/ST/sigMatrix\[2\]\[30\]
*362 completeAdder_1/ST/sigMatrix\[3\]\[63\]
*363 completeAdder_1/ST/sigMatrix\[3\]\[62\]
*364 completeAdder_1/ST/sigMatrix\[3\]\[55\]
*365 completeAdder_1/ST/sigMatrix\[3\]\[54\]
*366 completeAdder_1/ST/n2
*367 completeAdder_1/ST/PGNetwork_1/SpecBlock_0/g1p1[1]
*368 completeAdder_1/ST/PGNetwork_1/SpecBlock_0/g1p1[0]
*369 completeAdder_1/ST/PGNetwork_1/SpecBlock_0/GGBlock/n3
*370 completeAdder_1/ST/PGNetwork_1/PGBlock_5/n1
*371 completeAdder_1/ST/PGNetwork_1/PGBlock_11/n1
*372 completeAdder_1/ST/PGNetwork_1/PGBlock_15/n1
*373 completeAdder_1/ST/ST_row1And2_1/TBS_0/G_right_block_out
*374 completeAdder_1/ST/ST_row1And2_1/TBS_0/PG_left_block_out[1]
*375 completeAdder_1/ST/ST_row1And2_1/TBS_0/PG_left_block_out[0]
*376 completeAdder_1/ST/ST_row1And2_1/TBS_0/PG_1/n3
*377 completeAdder_1/ST/ST_row1And2_1/TBS_0/G_1/n3
*378 completeAdder_1/ST/ST_row1And2_1/TBS_0/G_2/n3
*379 completeAdder_1/ST/ST_row1And2_1/TB_1/PG_left_block_out[1]
*380 completeAdder_1/ST/ST_row1And2_1/TB_1/PG_left_block_out[0]
*381 completeAdder_1/ST/ST_row1And2_1/TB_1/PG_right_block_out[1]
*382 completeAdder_1/ST/ST_row1And2_1/TB_1/PG_right_block_out[0]
*383 completeAdder_1/ST/ST_row1And2_1/TB_1/PG_1/n3
*384 completeAdder_1/ST/ST_row1And2_1/TB_1/PG_2/n3
*385 completeAdder_1/ST/ST_row1And2_1/TB_1/PG_3/n3
*386 completeAdder_1/ST/ST_row1And2_1/TB_2/PG_left_block_out[1]
*387 completeAdder_1/ST/ST_row1And2_1/TB_2/PG_left_block_out[0]
*388 completeAdder_1/ST/ST_row1And2_1/TB_2/PG_right_block_out[1]
*389 completeAdder_1/ST/ST_row1And2_1/TB_2/PG_right_block_out[0]
*390 completeAdder_1/ST/ST_row1And2_1/TB_2/PG_1/n3
*391 completeAdder_1/ST/ST_row1And2_1/TB_2/PG_2/n3
*392 completeAdder_1/ST/ST_row1And2_1/TB_2/PG_3/n3
*393 completeAdder_1/ST/ST_row1And2_1/TB_3/PG_left_block_out[1]
*394 completeAdder_1/ST/ST_row1And2_1/TB_3/PG_left_block_out[0]
*395 completeAdder_1/ST/ST_row1And2_1/TB_3/PG_right_block_out[1]
*396 completeAdder_1/ST/ST_row1And2_1/TB_3/PG_right_block_out[0]
*397 completeAdder_1/ST/ST_row1And2_1/TB_3/PG_1/n3
*398 completeAdder_1/ST/ST_row1And2_1/TB_3/PG_2/n3
*399 completeAdder_1/ST/ST_row1And2_1/TB_3/PG_3/n3
*400 completeAdder_1/ST/ST_row1And2_1/TB_4/PG_left_block_out[1]
*401 completeAdder_1/ST/ST_row1And2_1/TB_4/PG_left_block_out[0]
*402 completeAdder_1/ST/ST_row1And2_1/TB_4/PG_right_block_out[1]
*403 completeAdder_1/ST/ST_row1And2_1/TB_4/PG_right_block_out[0]
*404 completeAdder_1/ST/ST_row1And2_1/TB_4/PG_1/n3
*405 completeAdder_1/ST/ST_row1And2_1/TB_4/PG_2/n3
*406 completeAdder_1/ST/ST_row1And2_1/TB_4/PG_3/n3
*407 completeAdder_1/ST/ST_row1And2_1/TB_5/PG_left_block_out[1]
*408 completeAdder_1/ST/ST_row1And2_1/TB_5/PG_left_block_out[0]
*409 completeAdder_1/ST/ST_row1And2_1/TB_5/PG_right_block_out[1]
*410 completeAdder_1/ST/ST_row1And2_1/TB_5/PG_right_block_out[0]
*411 completeAdder_1/ST/ST_row1And2_1/TB_5/PG_1/n3
*412 completeAdder_1/ST/ST_row1And2_1/TB_5/PG_2/n3
*413 completeAdder_1/ST/ST_row1And2_1/TB_5/PG_3/n3
*414 completeAdder_1/ST/ST_row1And2_1/TB_6/PG_left_block_out[1]
*415 completeAdder_1/ST/ST_row1And2_1/TB_6/PG_left_block_out[0]
*416 completeAdder_1/ST/ST_row1And2_1/TB_6/PG_right_block_out[1]
*417 completeAdder_1/ST/ST_row1And2_1/TB_6/PG_right_block_out[0]
*418 completeAdder_1/ST/ST_row1And2_1/TB_6/PG_1/n3
*419 completeAdder_1/ST/ST_row1And2_1/TB_6/PG_2/n3
*420 completeAdder_1/ST/ST_row1And2_1/TB_6/PG_3/n3
*421 completeAdder_1/ST/ST_row1And2_1/TB_7/PG_left_block_out[1]
*422 completeAdder_1/ST/ST_row1And2_1/TB_7/PG_left_block_out[0]
*423 completeAdder_1/ST/ST_row1And2_1/TB_7/PG_right_block_out[1]
*424 completeAdder_1/ST/ST_row1And2_1/TB_7/PG_right_block_out[0]
*425 completeAdder_1/ST/ST_row1And2_1/TB_7/PG_1/n3
*426 completeAdder_1/ST/ST_row1And2_1/TB_7/PG_2/n3
*427 completeAdder_1/ST/ST_row1And2_1/TB_7/PG_3/n3
*428 completeAdder_1/ST/G_1_0_0_0/n2
*429 completeAdder_1/ST/PG_1_0_1_0/n2
*430 completeAdder_1/ST/PG_1_0_2_0/n3
*431 completeAdder_1/ST/PG_1_0_3_0/n3
*432 completeAdder_1/ST/G_1_1_0_0/n3
*433 completeAdder_1/ST/G_1_1_0_1/n3
*434 completeAdder_1/ST/PG_1_1_1_0/n3
*435 completeAdder_1/ST/PG_1_1_1_1/n3
*436 completeAdder_1/ST/G_1_2_0_0/n3
*437 completeAdder_1/ST/G_1_2_0_1/n3
*438 completeAdder_1/ST/G_1_2_0_2/n3
*439 completeAdder_1/ST/G_1_2_0_3/n3
*440 completeAdder_1/CSSG/CSB_0/RCA1toMux[3]
*441 completeAdder_1/CSSG/CSB_0/RCA1toMux[2]
*442 completeAdder_1/CSSG/CSB_0/RCA1toMux[1]
*443 completeAdder_1/CSSG/CSB_0/RCA1toMux[0]
*444 completeAdder_1/CSSG/CSB_0/RCA2toMux[3]
*445 completeAdder_1/CSSG/CSB_0/RCA2toMux[2]
*446 completeAdder_1/CSSG/CSB_0/RCA2toMux[1]
*447 completeAdder_1/CSSG/CSB_0/RCA2toMux[0]
*448 completeAdder_1/CSSG/CSB_0/RCA_1/Co
*449 completeAdder_1/CSSG/CSB_0/RCA_1/CTMP[3]
*450 completeAdder_1/CSSG/CSB_0/RCA_1/CTMP[2]
*451 completeAdder_1/CSSG/CSB_0/RCA_1/CTMP[1]
*452 completeAdder_1/CSSG/CSB_0/RCA_1/FAI_1/n2
*453 completeAdder_1/CSSG/CSB_0/RCA_1/FAI_1/n3
*454 completeAdder_1/CSSG/CSB_0/RCA_1/FAI_2/n4
*455 completeAdder_1/CSSG/CSB_0/RCA_1/FAI_2/n5
*456 completeAdder_1/CSSG/CSB_0/RCA_1/FAI_3/n4
*457 completeAdder_1/CSSG/CSB_0/RCA_1/FAI_3/n5
*458 completeAdder_1/CSSG/CSB_0/RCA_1/FAI_4/n4
*459 completeAdder_1/CSSG/CSB_0/RCA_1/FAI_4/n5
*460 completeAdder_1/CSSG/CSB_0/RCA_2/Co
*461 completeAdder_1/CSSG/CSB_0/RCA_2/CTMP[3]
*462 completeAdder_1/CSSG/CSB_0/RCA_2/CTMP[2]
*463 completeAdder_1/CSSG/CSB_0/RCA_2/CTMP[1]
*464 completeAdder_1/CSSG/CSB_0/RCA_2/FAI_1/n4
*465 completeAdder_1/CSSG/CSB_0/RCA_2/FAI_1/n5
*466 completeAdder_1/CSSG/CSB_0/RCA_2/FAI_2/n4
*467 completeAdder_1/CSSG/CSB_0/RCA_2/FAI_2/n5
*468 completeAdder_1/CSSG/CSB_0/RCA_2/FAI_3/n4
*469 completeAdder_1/CSSG/CSB_0/RCA_2/FAI_3/n5
*470 completeAdder_1/CSSG/CSB_0/RCA_2/FAI_4/n4
*471 completeAdder_1/CSSG/CSB_0/RCA_2/FAI_4/n5
*472 completeAdder_1/CSSG/CSB_0/MUX21_1/n6
*473 completeAdder_1/CSSG/CSB_0/MUX21_1/n7
*474 completeAdder_1/CSSG/CSB_0/MUX21_1/n8
*475 completeAdder_1/CSSG/CSB_0/MUX21_1/n9
*476 completeAdder_1/CSSG/CSB_0/MUX21_1/n5
*477 completeAdder_1/CSSG/CSB_1/RCA1toMux[3]
*478 completeAdder_1/CSSG/CSB_1/RCA1toMux[2]
*479 completeAdder_1/CSSG/CSB_1/RCA1toMux[1]
*480 completeAdder_1/CSSG/CSB_1/RCA1toMux[0]
*481 completeAdder_1/CSSG/CSB_1/RCA2toMux[3]
*482 completeAdder_1/CSSG/CSB_1/RCA2toMux[2]
*483 completeAdder_1/CSSG/CSB_1/RCA2toMux[1]
*484 completeAdder_1/CSSG/CSB_1/RCA2toMux[0]
*485 completeAdder_1/CSSG/CSB_1/RCA_1/Co
*486 completeAdder_1/CSSG/CSB_1/RCA_1/CTMP[3]
*487 completeAdder_1/CSSG/CSB_1/RCA_1/CTMP[2]
*488 completeAdder_1/CSSG/CSB_1/RCA_1/CTMP[1]
*489 completeAdder_1/CSSG/CSB_1/RCA_1/FAI_1/n4
*490 completeAdder_1/CSSG/CSB_1/RCA_1/FAI_1/n5
*491 completeAdder_1/CSSG/CSB_1/RCA_1/FAI_2/n4
*492 completeAdder_1/CSSG/CSB_1/RCA_1/FAI_2/n5
*493 completeAdder_1/CSSG/CSB_1/RCA_1/FAI_3/n4
*494 completeAdder_1/CSSG/CSB_1/RCA_1/FAI_3/n5
*495 completeAdder_1/CSSG/CSB_1/RCA_1/FAI_4/n4
*496 completeAdder_1/CSSG/CSB_1/RCA_1/FAI_4/n5
*497 completeAdder_1/CSSG/CSB_1/RCA_2/Co
*498 completeAdder_1/CSSG/CSB_1/RCA_2/CTMP[3]
*499 completeAdder_1/CSSG/CSB_1/RCA_2/CTMP[2]
*500 completeAdder_1/CSSG/CSB_1/RCA_2/CTMP[1]
*501 completeAdder_1/CSSG/CSB_1/RCA_2/FAI_1/n4
*502 completeAdder_1/CSSG/CSB_1/RCA_2/FAI_1/n5
*503 completeAdder_1/CSSG/CSB_1/RCA_2/FAI_2/n4
*504 completeAdder_1/CSSG/CSB_1/RCA_2/FAI_2/n5
*505 completeAdder_1/CSSG/CSB_1/RCA_2/FAI_3/n4
*506 completeAdder_1/CSSG/CSB_1/RCA_2/FAI_3/n5
*507 completeAdder_1/CSSG/CSB_1/RCA_2/FAI_4/n4
*508 completeAdder_1/CSSG/CSB_1/RCA_2/FAI_4/n5
*509 completeAdder_1/CSSG/CSB_1/MUX21_1/n10
*510 completeAdder_1/CSSG/CSB_1/MUX21_1/n11
*511 completeAdder_1/CSSG/CSB_1/MUX21_1/n12
*512 completeAdder_1/CSSG/CSB_1/MUX21_1/n13
*513 completeAdder_1/CSSG/CSB_1/MUX21_1/n14
*514 completeAdder_1/CSSG/CSB_2/RCA1toMux[3]
*515 completeAdder_1/CSSG/CSB_2/RCA1toMux[2]
*516 completeAdder_1/CSSG/CSB_2/RCA1toMux[1]
*517 completeAdder_1/CSSG/CSB_2/RCA1toMux[0]
*518 completeAdder_1/CSSG/CSB_2/RCA2toMux[3]
*519 completeAdder_1/CSSG/CSB_2/RCA2toMux[2]
*520 completeAdder_1/CSSG/CSB_2/RCA2toMux[1]
*521 completeAdder_1/CSSG/CSB_2/RCA2toMux[0]
*522 completeAdder_1/CSSG/CSB_2/RCA_1/Co
*523 completeAdder_1/CSSG/CSB_2/RCA_1/CTMP[3]
*524 completeAdder_1/CSSG/CSB_2/RCA_1/CTMP[2]
*525 completeAdder_1/CSSG/CSB_2/RCA_1/CTMP[1]
*526 completeAdder_1/CSSG/CSB_2/RCA_1/FAI_1/n4
*527 completeAdder_1/CSSG/CSB_2/RCA_1/FAI_1/n5
*528 completeAdder_1/CSSG/CSB_2/RCA_1/FAI_2/n4
*529 completeAdder_1/CSSG/CSB_2/RCA_1/FAI_2/n5
*530 completeAdder_1/CSSG/CSB_2/RCA_1/FAI_3/n4
*531 completeAdder_1/CSSG/CSB_2/RCA_1/FAI_3/n5
*532 completeAdder_1/CSSG/CSB_2/RCA_1/FAI_4/n4
*533 completeAdder_1/CSSG/CSB_2/RCA_1/FAI_4/n5
*534 completeAdder_1/CSSG/CSB_2/RCA_2/Co
*535 completeAdder_1/CSSG/CSB_2/RCA_2/CTMP[3]
*536 completeAdder_1/CSSG/CSB_2/RCA_2/CTMP[2]
*537 completeAdder_1/CSSG/CSB_2/RCA_2/CTMP[1]
*538 completeAdder_1/CSSG/CSB_2/RCA_2/FAI_1/n5
*539 completeAdder_1/CSSG/CSB_2/RCA_2/FAI_1/n6
*540 completeAdder_1/CSSG/CSB_2/RCA_2/FAI_2/n4
*541 completeAdder_1/CSSG/CSB_2/RCA_2/FAI_2/n5
*542 completeAdder_1/CSSG/CSB_2/RCA_2/FAI_3/n4
*543 completeAdder_1/CSSG/CSB_2/RCA_2/FAI_3/n5
*544 completeAdder_1/CSSG/CSB_2/RCA_2/FAI_4/n4
*545 completeAdder_1/CSSG/CSB_2/RCA_2/FAI_4/n5
*546 completeAdder_1/CSSG/CSB_2/MUX21_1/n10
*547 completeAdder_1/CSSG/CSB_2/MUX21_1/n11
*548 completeAdder_1/CSSG/CSB_2/MUX21_1/n12
*549 completeAdder_1/CSSG/CSB_2/MUX21_1/n13
*550 completeAdder_1/CSSG/CSB_2/MUX21_1/n14
*551 completeAdder_1/CSSG/CSB_3/RCA1toMux[3]
*552 completeAdder_1/CSSG/CSB_3/RCA1toMux[2]
*553 completeAdder_1/CSSG/CSB_3/RCA1toMux[1]
*554 completeAdder_1/CSSG/CSB_3/RCA1toMux[0]
*555 completeAdder_1/CSSG/CSB_3/RCA2toMux[3]
*556 completeAdder_1/CSSG/CSB_3/RCA2toMux[2]
*557 completeAdder_1/CSSG/CSB_3/RCA2toMux[1]
*558 completeAdder_1/CSSG/CSB_3/RCA2toMux[0]
*559 completeAdder_1/CSSG/CSB_3/RCA_1/Co
*560 completeAdder_1/CSSG/CSB_3/RCA_1/CTMP[3]
*561 completeAdder_1/CSSG/CSB_3/RCA_1/CTMP[2]
*562 completeAdder_1/CSSG/CSB_3/RCA_1/CTMP[1]
*563 completeAdder_1/CSSG/CSB_3/RCA_1/FAI_1/n4
*564 completeAdder_1/CSSG/CSB_3/RCA_1/FAI_1/n5
*565 completeAdder_1/CSSG/CSB_3/RCA_1/FAI_2/n4
*566 completeAdder_1/CSSG/CSB_3/RCA_1/FAI_2/n5
*567 completeAdder_1/CSSG/CSB_3/RCA_1/FAI_3/n4
*568 completeAdder_1/CSSG/CSB_3/RCA_1/FAI_3/n5
*569 completeAdder_1/CSSG/CSB_3/RCA_1/FAI_4/n4
*570 completeAdder_1/CSSG/CSB_3/RCA_1/FAI_4/n5
*571 completeAdder_1/CSSG/CSB_3/RCA_2/Co
*572 completeAdder_1/CSSG/CSB_3/RCA_2/CTMP[3]
*573 completeAdder_1/CSSG/CSB_3/RCA_2/CTMP[2]
*574 completeAdder_1/CSSG/CSB_3/RCA_2/CTMP[1]
*575 completeAdder_1/CSSG/CSB_3/RCA_2/FAI_1/n4
*576 completeAdder_1/CSSG/CSB_3/RCA_2/FAI_1/n5
*577 completeAdder_1/CSSG/CSB_3/RCA_2/FAI_2/n4
*578 completeAdder_1/CSSG/CSB_3/RCA_2/FAI_2/n5
*579 completeAdder_1/CSSG/CSB_3/RCA_2/FAI_3/n4
*580 completeAdder_1/CSSG/CSB_3/RCA_2/FAI_3/n5
*581 completeAdder_1/CSSG/CSB_3/RCA_2/FAI_4/n4
*582 completeAdder_1/CSSG/CSB_3/RCA_2/FAI_4/n5
*583 completeAdder_1/CSSG/CSB_3/MUX21_1/n7
*584 completeAdder_1/CSSG/CSB_3/MUX21_1/n8
*585 completeAdder_1/CSSG/CSB_3/MUX21_1/n9
*586 completeAdder_1/CSSG/CSB_3/MUX21_1/n5
*587 completeAdder_1/CSSG/CSB_3/MUX21_1/n6
*588 completeAdder_1/CSSG/CSB_3/MUX21_1/n10
*589 completeAdder_1/CSSG/CSB_3/MUX21_1/n11
*590 completeAdder_1/CSSG/CSB_3/MUX21_1/n12
*591 completeAdder_1/CSSG/CSB_3/MUX21_1/n13
*592 completeAdder_1/CSSG/CSB_4/RCA1toMux[3]
*593 completeAdder_1/CSSG/CSB_4/RCA1toMux[2]
*594 completeAdder_1/CSSG/CSB_4/RCA1toMux[1]
*595 completeAdder_1/CSSG/CSB_4/RCA1toMux[0]
*596 completeAdder_1/CSSG/CSB_4/RCA2toMux[3]
*597 completeAdder_1/CSSG/CSB_4/RCA2toMux[2]
*598 completeAdder_1/CSSG/CSB_4/RCA2toMux[1]
*599 completeAdder_1/CSSG/CSB_4/RCA2toMux[0]
*600 completeAdder_1/CSSG/CSB_4/RCA_1/Co
*601 completeAdder_1/CSSG/CSB_4/RCA_1/CTMP[3]
*602 completeAdder_1/CSSG/CSB_4/RCA_1/CTMP[2]
*603 completeAdder_1/CSSG/CSB_4/RCA_1/CTMP[1]
*604 completeAdder_1/CSSG/CSB_4/RCA_1/FAI_1/n4
*605 completeAdder_1/CSSG/CSB_4/RCA_1/FAI_1/n5
*606 completeAdder_1/CSSG/CSB_4/RCA_1/FAI_2/n4
*607 completeAdder_1/CSSG/CSB_4/RCA_1/FAI_2/n5
*608 completeAdder_1/CSSG/CSB_4/RCA_1/FAI_3/n4
*609 completeAdder_1/CSSG/CSB_4/RCA_1/FAI_3/n5
*610 completeAdder_1/CSSG/CSB_4/RCA_1/FAI_4/n4
*611 completeAdder_1/CSSG/CSB_4/RCA_1/FAI_4/n5
*612 completeAdder_1/CSSG/CSB_4/RCA_2/Co
*613 completeAdder_1/CSSG/CSB_4/RCA_2/CTMP[3]
*614 completeAdder_1/CSSG/CSB_4/RCA_2/CTMP[2]
*615 completeAdder_1/CSSG/CSB_4/RCA_2/CTMP[1]
*616 completeAdder_1/CSSG/CSB_4/RCA_2/FAI_1/n4
*617 completeAdder_1/CSSG/CSB_4/RCA_2/FAI_1/n5
*618 completeAdder_1/CSSG/CSB_4/RCA_2/FAI_2/n4
*619 completeAdder_1/CSSG/CSB_4/RCA_2/FAI_2/n5
*620 completeAdder_1/CSSG/CSB_4/RCA_2/FAI_3/n4
*621 completeAdder_1/CSSG/CSB_4/RCA_2/FAI_3/n5
*622 completeAdder_1/CSSG/CSB_4/RCA_2/FAI_4/n4
*623 completeAdder_1/CSSG/CSB_4/RCA_2/FAI_4/n5
*624 completeAdder_1/CSSG/CSB_4/MUX21_1/n5
*625 completeAdder_1/CSSG/CSB_4/MUX21_1/n7
*626 completeAdder_1/CSSG/CSB_4/MUX21_1/n6
*627 completeAdder_1/CSSG/CSB_4/MUX21_1/n10
*628 completeAdder_1/CSSG/CSB_4/MUX21_1/n11
*629 completeAdder_1/CSSG/CSB_4/MUX21_1/n12
*630 completeAdder_1/CSSG/CSB_5/RCA1toMux[3]
*631 completeAdder_1/CSSG/CSB_5/RCA1toMux[2]
*632 completeAdder_1/CSSG/CSB_5/RCA1toMux[1]
*633 completeAdder_1/CSSG/CSB_5/RCA1toMux[0]
*634 completeAdder_1/CSSG/CSB_5/RCA2toMux[3]
*635 completeAdder_1/CSSG/CSB_5/RCA2toMux[2]
*636 completeAdder_1/CSSG/CSB_5/RCA2toMux[1]
*637 completeAdder_1/CSSG/CSB_5/RCA2toMux[0]
*638 completeAdder_1/CSSG/CSB_5/RCA_1/Co
*639 completeAdder_1/CSSG/CSB_5/RCA_1/CTMP[3]
*640 completeAdder_1/CSSG/CSB_5/RCA_1/CTMP[2]
*641 completeAdder_1/CSSG/CSB_5/RCA_1/CTMP[1]
*642 completeAdder_1/CSSG/CSB_5/RCA_1/FAI_1/n4
*643 completeAdder_1/CSSG/CSB_5/RCA_1/FAI_1/n5
*644 completeAdder_1/CSSG/CSB_5/RCA_1/FAI_2/n4
*645 completeAdder_1/CSSG/CSB_5/RCA_1/FAI_2/n5
*646 completeAdder_1/CSSG/CSB_5/RCA_1/FAI_3/n4
*647 completeAdder_1/CSSG/CSB_5/RCA_1/FAI_3/n5
*648 completeAdder_1/CSSG/CSB_5/RCA_1/FAI_4/n4
*649 completeAdder_1/CSSG/CSB_5/RCA_1/FAI_4/n5
*650 completeAdder_1/CSSG/CSB_5/RCA_2/Co
*651 completeAdder_1/CSSG/CSB_5/RCA_2/CTMP[3]
*652 completeAdder_1/CSSG/CSB_5/RCA_2/CTMP[2]
*653 completeAdder_1/CSSG/CSB_5/RCA_2/CTMP[1]
*654 completeAdder_1/CSSG/CSB_5/RCA_2/FAI_1/n4
*655 completeAdder_1/CSSG/CSB_5/RCA_2/FAI_1/n5
*656 completeAdder_1/CSSG/CSB_5/RCA_2/FAI_2/n4
*657 completeAdder_1/CSSG/CSB_5/RCA_2/FAI_2/n5
*658 completeAdder_1/CSSG/CSB_5/RCA_2/FAI_3/n4
*659 completeAdder_1/CSSG/CSB_5/RCA_2/FAI_3/n5
*660 completeAdder_1/CSSG/CSB_5/RCA_2/FAI_4/n4
*661 completeAdder_1/CSSG/CSB_5/RCA_2/FAI_4/n5
*662 completeAdder_1/CSSG/CSB_5/MUX21_1/net4293
*663 completeAdder_1/CSSG/CSB_5/MUX21_1/n6
*664 completeAdder_1/CSSG/CSB_6/RCA1toMux[3]
*665 completeAdder_1/CSSG/CSB_6/RCA1toMux[2]
*666 completeAdder_1/CSSG/CSB_6/RCA1toMux[1]
*667 completeAdder_1/CSSG/CSB_6/RCA1toMux[0]
*668 completeAdder_1/CSSG/CSB_6/RCA2toMux[3]
*669 completeAdder_1/CSSG/CSB_6/RCA2toMux[2]
*670 completeAdder_1/CSSG/CSB_6/RCA2toMux[1]
*671 completeAdder_1/CSSG/CSB_6/RCA2toMux[0]
*672 completeAdder_1/CSSG/CSB_6/RCA_1/Co
*673 completeAdder_1/CSSG/CSB_6/RCA_1/CTMP[3]
*674 completeAdder_1/CSSG/CSB_6/RCA_1/CTMP[2]
*675 completeAdder_1/CSSG/CSB_6/RCA_1/CTMP[1]
*676 completeAdder_1/CSSG/CSB_6/RCA_1/FAI_1/n4
*677 completeAdder_1/CSSG/CSB_6/RCA_1/FAI_1/n5
*678 completeAdder_1/CSSG/CSB_6/RCA_1/FAI_2/n4
*679 completeAdder_1/CSSG/CSB_6/RCA_1/FAI_2/n5
*680 completeAdder_1/CSSG/CSB_6/RCA_1/FAI_3/n4
*681 completeAdder_1/CSSG/CSB_6/RCA_1/FAI_3/n5
*682 completeAdder_1/CSSG/CSB_6/RCA_1/FAI_4/n4
*683 completeAdder_1/CSSG/CSB_6/RCA_1/FAI_4/n5
*684 completeAdder_1/CSSG/CSB_6/RCA_2/Co
*685 completeAdder_1/CSSG/CSB_6/RCA_2/CTMP[3]
*686 completeAdder_1/CSSG/CSB_6/RCA_2/CTMP[2]
*687 completeAdder_1/CSSG/CSB_6/RCA_2/CTMP[1]
*688 completeAdder_1/CSSG/CSB_6/RCA_2/FAI_1/n4
*689 completeAdder_1/CSSG/CSB_6/RCA_2/FAI_1/n5
*690 completeAdder_1/CSSG/CSB_6/RCA_2/FAI_2/n4
*691 completeAdder_1/CSSG/CSB_6/RCA_2/FAI_2/n5
*692 completeAdder_1/CSSG/CSB_6/RCA_2/FAI_3/n4
*693 completeAdder_1/CSSG/CSB_6/RCA_2/FAI_3/n5
*694 completeAdder_1/CSSG/CSB_6/RCA_2/FAI_4/n4
*695 completeAdder_1/CSSG/CSB_6/RCA_2/FAI_4/n5
*696 completeAdder_1/CSSG/CSB_6/MUX21_1/net2754
*697 completeAdder_1/CSSG/CSB_6/MUX21_1/n7
*698 completeAdder_1/CSSG/CSB_7/RCA1toMux[3]
*699 completeAdder_1/CSSG/CSB_7/RCA1toMux[2]
*700 completeAdder_1/CSSG/CSB_7/RCA1toMux[1]
*701 completeAdder_1/CSSG/CSB_7/RCA1toMux[0]
*702 completeAdder_1/CSSG/CSB_7/RCA2toMux[3]
*703 completeAdder_1/CSSG/CSB_7/RCA2toMux[2]
*704 completeAdder_1/CSSG/CSB_7/RCA2toMux[1]
*705 completeAdder_1/CSSG/CSB_7/RCA2toMux[0]
*706 completeAdder_1/CSSG/CSB_7/RCA_1/Co
*707 completeAdder_1/CSSG/CSB_7/RCA_1/CTMP[3]
*708 completeAdder_1/CSSG/CSB_7/RCA_1/CTMP[2]
*709 completeAdder_1/CSSG/CSB_7/RCA_1/CTMP[1]
*710 completeAdder_1/CSSG/CSB_7/RCA_1/FAI_1/n4
*711 completeAdder_1/CSSG/CSB_7/RCA_1/FAI_1/n5
*712 completeAdder_1/CSSG/CSB_7/RCA_1/FAI_2/n4
*713 completeAdder_1/CSSG/CSB_7/RCA_1/FAI_2/n5
*714 completeAdder_1/CSSG/CSB_7/RCA_1/FAI_3/n4
*715 completeAdder_1/CSSG/CSB_7/RCA_1/FAI_3/n5
*716 completeAdder_1/CSSG/CSB_7/RCA_1/FAI_4/n4
*717 completeAdder_1/CSSG/CSB_7/RCA_1/FAI_4/n5
*718 completeAdder_1/CSSG/CSB_7/RCA_2/Co
*719 completeAdder_1/CSSG/CSB_7/RCA_2/CTMP[3]
*720 completeAdder_1/CSSG/CSB_7/RCA_2/CTMP[2]
*721 completeAdder_1/CSSG/CSB_7/RCA_2/CTMP[1]
*722 completeAdder_1/CSSG/CSB_7/RCA_2/FAI_1/n4
*723 completeAdder_1/CSSG/CSB_7/RCA_2/FAI_1/n5
*724 completeAdder_1/CSSG/CSB_7/RCA_2/FAI_2/n4
*725 completeAdder_1/CSSG/CSB_7/RCA_2/FAI_2/n5
*726 completeAdder_1/CSSG/CSB_7/RCA_2/FAI_3/n4
*727 completeAdder_1/CSSG/CSB_7/RCA_2/FAI_3/n5
*728 completeAdder_1/CSSG/CSB_7/RCA_2/FAI_4/n4
*729 completeAdder_1/CSSG/CSB_7/RCA_2/FAI_4/n5
*730 FE_OFC0_n102
*731 completeAdder_1/FE_OCPC4_FE_OFN1_n103
*732 completeAdder_1/FE_OCPC3_FE_OFN1_n103
*733 completeAdder_1/FE_OCPC2_FE_OFN1_n103
*734 completeAdder_1/FE_OFC1_n103
*735 completeAdder_1/ST/PGNetwork_1/SpecBlock_0/PGBlock/U2
*736 completeAdder_1/ST/PGNetwork_1/SpecBlock_0/PGBlock/U1
*737 completeAdder_1/ST/PGNetwork_1/SpecBlock_0/GGBlock/U1
*738 completeAdder_1/ST/PGNetwork_1/SpecBlock_0/GGBlock/U2
*739 completeAdder_1/ST/PGNetwork_1/PGBlock_1/U2
*740 completeAdder_1/ST/PGNetwork_1/PGBlock_1/U1
*741 completeAdder_1/ST/PGNetwork_1/PGBlock_2/U2
*742 completeAdder_1/ST/PGNetwork_1/PGBlock_2/U1
*743 completeAdder_1/ST/PGNetwork_1/PGBlock_3/U2
*744 completeAdder_1/ST/PGNetwork_1/PGBlock_3/U1
*745 completeAdder_1/ST/PGNetwork_1/PGBlock_4/U2
*746 completeAdder_1/ST/PGNetwork_1/PGBlock_4/U1
*747 completeAdder_1/ST/PGNetwork_1/PGBlock_5/U1
*748 completeAdder_1/ST/PGNetwork_1/PGBlock_5/U2
*749 completeAdder_1/ST/PGNetwork_1/PGBlock_5/U3
*750 completeAdder_1/ST/PGNetwork_1/PGBlock_6/U2
*751 completeAdder_1/ST/PGNetwork_1/PGBlock_6/U1
*752 completeAdder_1/ST/PGNetwork_1/PGBlock_7/U2
*753 completeAdder_1/ST/PGNetwork_1/PGBlock_7/U1
*754 completeAdder_1/ST/PGNetwork_1/PGBlock_8/U2
*755 completeAdder_1/ST/PGNetwork_1/PGBlock_8/U1
*756 completeAdder_1/ST/PGNetwork_1/PGBlock_9/U2
*757 completeAdder_1/ST/PGNetwork_1/PGBlock_9/U1
*758 completeAdder_1/ST/PGNetwork_1/PGBlock_10/U2
*759 completeAdder_1/ST/PGNetwork_1/PGBlock_10/U1
*760 completeAdder_1/ST/PGNetwork_1/PGBlock_11/U1
*761 completeAdder_1/ST/PGNetwork_1/PGBlock_11/U2
*762 completeAdder_1/ST/PGNetwork_1/PGBlock_11/U3
*763 completeAdder_1/ST/PGNetwork_1/PGBlock_12/U2
*764 completeAdder_1/ST/PGNetwork_1/PGBlock_12/U1
*765 completeAdder_1/ST/PGNetwork_1/PGBlock_13/U2
*766 completeAdder_1/ST/PGNetwork_1/PGBlock_13/U1
*767 completeAdder_1/ST/PGNetwork_1/PGBlock_14/U2
*768 completeAdder_1/ST/PGNetwork_1/PGBlock_14/U1
*769 completeAdder_1/ST/PGNetwork_1/PGBlock_15/U1
*770 completeAdder_1/ST/PGNetwork_1/PGBlock_15/U2
*771 completeAdder_1/ST/PGNetwork_1/PGBlock_15/U3
*772 completeAdder_1/ST/PGNetwork_1/PGBlock_16/U2
*773 completeAdder_1/ST/PGNetwork_1/PGBlock_16/U1
*774 completeAdder_1/ST/PGNetwork_1/PGBlock_17/U2
*775 completeAdder_1/ST/PGNetwork_1/PGBlock_17/U1
*776 completeAdder_1/ST/PGNetwork_1/PGBlock_18/U2
*777 completeAdder_1/ST/PGNetwork_1/PGBlock_18/U1
*778 completeAdder_1/ST/PGNetwork_1/PGBlock_19/U2
*779 completeAdder_1/ST/PGNetwork_1/PGBlock_19/U1
*780 completeAdder_1/ST/PGNetwork_1/PGBlock_20/U2
*781 completeAdder_1/ST/PGNetwork_1/PGBlock_20/U1
*782 completeAdder_1/ST/PGNetwork_1/PGBlock_21/U2
*783 completeAdder_1/ST/PGNetwork_1/PGBlock_21/U1
*784 completeAdder_1/ST/PGNetwork_1/PGBlock_22/U2
*785 completeAdder_1/ST/PGNetwork_1/PGBlock_22/U1
*786 completeAdder_1/ST/PGNetwork_1/PGBlock_23/U2
*787 completeAdder_1/ST/PGNetwork_1/PGBlock_23/U1
*788 completeAdder_1/ST/PGNetwork_1/PGBlock_24/U2
*789 completeAdder_1/ST/PGNetwork_1/PGBlock_24/U1
*790 completeAdder_1/ST/PGNetwork_1/PGBlock_25/U2
*791 completeAdder_1/ST/PGNetwork_1/PGBlock_25/U1
*792 completeAdder_1/ST/PGNetwork_1/PGBlock_26/U2
*793 completeAdder_1/ST/PGNetwork_1/PGBlock_26/U1
*794 completeAdder_1/ST/PGNetwork_1/PGBlock_27/U2
*795 completeAdder_1/ST/PGNetwork_1/PGBlock_27/U1
*796 completeAdder_1/ST/PGNetwork_1/PGBlock_28/U2
*797 completeAdder_1/ST/PGNetwork_1/PGBlock_28/U1
*798 completeAdder_1/ST/PGNetwork_1/PGBlock_29/U2
*799 completeAdder_1/ST/PGNetwork_1/PGBlock_29/U1
*800 completeAdder_1/ST/PGNetwork_1/PGBlock_30/U2
*801 completeAdder_1/ST/PGNetwork_1/PGBlock_30/U1
*802 completeAdder_1/ST/PGNetwork_1/PGBlock_31/U2
*803 completeAdder_1/ST/PGNetwork_1/PGBlock_31/U1