*SPEF "IEEE 1481-1998"
*DESIGN "SUM"
*DATE "Wed Jun 12 19:15:35 2019"
*VENDOR "Cadence Design Systems, Inc."
*PROGRAM "Innovus"
*VERSION "17.11-s080_1"
*DESIGN_FLOW "COUPLING C" "PIN_CAP NONE" "NAME_SCOPE LOCAL"
*DIVIDER /
*DELIMITER :
*BUS_DELIMITER []
*T_UNIT 1 NS
*C_UNIT 1 PF
*R_UNIT 1 OHM
*L_UNIT 1 HENRY

// MMMC spef file for corner 'standard'

*NAME_MAP

*1 A[127]
*2 A[126]
*3 A[125]
*4 A[124]
*5 A[123]
*6 A[122]
*7 A[121]
*8 A[120]
*9 A[119]
*10 A[118]
*11 A[117]
*12 A[116]
*13 A[115]
*14 A[114]
*15 A[113]
*16 A[112]
*17 A[111]
*18 A[110]
*19 A[109]
*20 A[108]
*21 A[107]
*22 A[106]
*23 A[105]
*24 A[104]
*25 A[103]
*26 A[102]
*27 A[101]
*28 A[100]
*29 A[99]
*30 A[98]
*31 A[97]
*32 A[96]
*33 A[95]
*34 A[94]
*35 A[93]
*36 A[92]
*37 A[91]
*38 A[90]
*39 A[89]
*40 A[88]
*41 A[87]
*42 A[86]
*43 A[85]
*44 A[84]
*45 A[83]
*46 A[82]
*47 A[81]
*48 A[80]
*49 A[79]
*50 A[78]
*51 A[77]
*52 A[76]
*53 A[75]
*54 A[74]
*55 A[73]
*56 A[72]
*57 A[71]
*58 A[70]
*59 A[69]
*60 A[68]
*61 A[67]
*62 A[66]
*63 A[65]
*64 A[64]
*65 A[63]
*66 A[62]
*67 A[61]
*68 A[60]
*69 A[59]
*70 A[58]
*71 A[57]
*72 A[56]
*73 A[55]
*74 A[54]
*75 A[53]
*76 A[52]
*77 A[51]
*78 A[50]
*79 A[49]
*80 A[48]
*81 A[47]
*82 A[46]
*83 A[45]
*84 A[44]
*85 A[43]
*86 A[42]
*87 A[41]
*88 A[40]
*89 A[39]
*90 A[38]
*91 A[37]
*92 A[36]
*93 A[35]
*94 A[34]
*95 A[33]
*96 A[32]
*97 A[31]
*98 A[30]
*99 A[29]
*100 A[28]
*101 A[27]
*102 A[26]
*103 A[25]
*104 A[24]
*105 A[23]
*106 A[22]
*107 A[21]
*108 A[20]
*109 A[19]
*110 A[18]
*111 A[17]
*112 A[16]
*113 A[15]
*114 A[14]
*115 A[13]
*116 A[12]
*117 A[11]
*118 A[10]
*119 A[9]
*120 A[8]
*121 A[7]
*122 A[6]
*123 A[5]
*124 A[4]
*125 A[3]
*126 A[2]
*127 A[1]
*128 A[0]
*129 B[127]
*130 B[126]
*131 B[125]
*132 B[124]
*133 B[123]
*134 B[122]
*135 B[121]
*136 B[120]
*137 B[119]
*138 B[118]
*139 B[117]
*140 B[116]
*141 B[115]
*142 B[114]
*143 B[113]
*144 B[112]
*145 B[111]
*146 B[110]
*147 B[109]
*148 B[108]
*149 B[107]
*150 B[106]
*151 B[105]
*152 B[104]
*153 B[103]
*154 B[102]
*155 B[101]
*156 B[100]
*157 B[99]
*158 B[98]
*159 B[97]
*160 B[96]
*161 B[95]
*162 B[94]
*163 B[93]
*164 B[92]
*165 B[91]
*166 B[90]
*167 B[89]
*168 B[88]
*169 B[87]
*170 B[86]
*171 B[85]
*172 B[84]
*173 B[83]
*174 B[82]
*175 B[81]
*176 B[80]
*177 B[79]
*178 B[78]
*179 B[77]
*180 B[76]
*181 B[75]
*182 B[74]
*183 B[73]
*184 B[72]
*185 B[71]
*186 B[70]
*187 B[69]
*188 B[68]
*189 B[67]
*190 B[66]
*191 B[65]
*192 B[64]
*193 B[63]
*194 B[62]
*195 B[61]
*196 B[60]
*197 B[59]
*198 B[58]
*199 B[57]
*200 B[56]
*201 B[55]
*202 B[54]
*203 B[53]
*204 B[52]
*205 B[51]
*206 B[50]
*207 B[49]
*208 B[48]
*209 B[47]
*210 B[46]
*211 B[45]
*212 B[44]
*213 B[43]
*214 B[42]
*215 B[41]
*216 B[40]
*217 B[39]
*218 B[38]
*219 B[37]
*220 B[36]
*221 B[35]
*222 B[34]
*223 B[33]
*224 B[32]
*225 B[31]
*226 B[30]
*227 B[29]
*228 B[28]
*229 B[27]
*230 B[26]
*231 B[25]
*232 B[24]
*233 B[23]
*234 B[22]
*235 B[21]
*236 B[20]
*237 B[19]
*238 B[18]
*239 B[17]
*240 B[16]
*241 B[15]
*242 B[14]
*243 B[13]
*244 B[12]
*245 B[11]
*246 B[10]
*247 B[9]
*248 B[8]
*249 B[7]
*250 B[6]
*251 B[5]
*252 B[4]
*253 B[3]
*254 B[2]
*255 B[1]
*256 B[0]
*257 Ci
*258 CLK
*259 RST
*260 S[127]
*261 S[126]
*262 S[125]
*263 S[124]
*264 S[123]
*265 S[122]
*266 S[121]
*267 S[120]
*268 S[119]
*269 S[118]
*270 S[117]
*271 S[116]
*272 S[115]
*273 S[114]
*274 S[113]
*275 S[112]
*276 S[111]
*277 S[110]
*278 S[109]
*279 S[108]
*280 S[107]
*281 S[106]
*282 S[105]
*283 S[104]
*284 S[103]
*285 S[102]
*286 S[101]
*287 S[100]
*288 S[99]
*289 S[98]
*290 S[97]
*291 S[96]
*292 S[95]
*293 S[94]
*294 S[93]
*295 S[92]
*296 S[91]
*297 S[90]
*298 S[89]
*299 S[88]
*300 S[87]
*301 S[86]
*302 S[85]
*303 S[84]
*304 S[83]
*305 S[82]
*306 S[81]
*307 S[80]
*308 S[79]
*309 S[78]
*310 S[77]
*311 S[76]
*312 S[75]
*313 S[74]
*314 S[73]
*315 S[72]
*316 S[71]
*317 S[70]
*318 S[69]
*319 S[68]
*320 S[67]
*321 S[66]
*322 S[65]
*323 S[64]
*324 S[63]
*325 S[62]
*326 S[61]
*327 S[60]
*328 S[59]
*329 S[58]
*330 S[57]
*331 S[56]
*332 S[55]
*333 S[54]
*334 S[53]
*335 S[52]
*336 S[51]
*337 S[50]
*338 S[49]
*339 S[48]
*340 S[47]
*341 S[46]
*342 S[45]
*343 S[44]
*344 S[43]
*345 S[42]
*346 S[41]
*347 S[40]
*348 S[39]
*349 S[38]
*350 S[37]
*351 S[36]
*352 S[35]
*353 S[34]
*354 S[33]
*355 S[32]
*356 S[31]
*357 S[30]
*358 S[29]
*359 S[28]
*360 S[27]
*361 S[26]
*362 S[25]
*363 S[24]
*364 S[23]
*365 S[22]
*366 S[21]
*367 S[20]
*368 S[19]
*369 S[18]
*370 S[17]
*371 S[16]
*372 S[15]
*373 S[14]
*374 S[13]
*375 S[12]
*376 S[11]
*377 S[10]
*378 S[9]
*379 S[8]
*380 S[7]
*381 S[6]
*382 S[5]
*383 S[4]
*384 S[3]
*385 S[2]
*386 S[1]
*387 S[0]
*388 Co
*389 FE_PHN270_RST
*390 FE_PHN269_RST
*391 FE_PHN268_RST
*392 FE_PHN267_RST
*393 FE_PHN266_RST
*394 FE_PHN265_RST
*395 FE_PHN264_RST
*396 FE_PHN263_B_1
*397 FE_PHN262_B_0
*398 FE_PHN261_B_3
*399 FE_PHN260_B_2
*400 FE_PHN259_B_4
*401 FE_PHN258_B_7
*402 FE_PHN257_B_5
*403 FE_PHN256_A_118
*404 FE_PHN255_A_114
*405 FE_PHN254_B_54
*406 FE_PHN253_A_115
*407 FE_PHN252_A_113
*408 FE_PHN251_A_111
*409 FE_PHN250_B_76
*410 FE_PHN249_B_65
*411 FE_PHN248_B_64
*412 FE_PHN247_B_8
*413 FE_PHN246_B_6
*414 FE_PHN245_B_51
*415 FE_PHN244_B_50
*416 FE_PHN243_B_49
*417 FE_PHN242_A_124
*418 FE_PHN241_A_122
*419 FE_PHN240_A_121
*420 FE_PHN239_A_120
*421 FE_PHN238_A_119
*422 FE_PHN237_A_112
*423 FE_PHN236_A_52
*424 FE_PHN235_A_51
*425 FE_PHN234_B_105
*426 FE_PHN233_B_80
*427 FE_PHN232_B_77
*428 FE_PHN231_B_67
*429 FE_PHN230_B_63
*430 FE_PHN229_B_62
*431 FE_PHN228_B_60
*432 FE_PHN227_B_11
*433 FE_PHN226_B_9
*434 FE_PHN225_B_53
*435 FE_PHN224_B_52
*436 FE_PHN223_A_54
*437 FE_PHN222_A_50
*438 FE_PHN221_A_47
*439 FE_PHN220_A_0
*440 FE_PHN219_B_66
*441 FE_PHN218_B_56
*442 FE_PHN217_B_55
*443 FE_PHN216_A_116
*444 FE_PHN215_A_55
*445 FE_PHN214_A_53
*446 FE_PHN213_A_49
*447 FE_PHN212_A_48
*448 FE_PHN211_A_44
*449 FE_PHN210_A_43
*450 FE_PHN209_B_103
*451 FE_PHN208_B_78
*452 FE_PHN207_B_75
*453 FE_PHN206_B_74
*454 FE_PHN205_B_59
*455 FE_PHN204_B_12
*456 FE_PHN203_B_10
*457 FE_PHN202_B_58
*458 FE_PHN201_B_48
*459 FE_PHN200_B_45
*460 FE_PHN199_A_126
*461 FE_PHN198_A_125
*462 FE_PHN197_A_123
*463 FE_PHN196_A_117
*464 FE_PHN195_A_110
*465 FE_PHN194_A_109
*466 FE_PHN193_A_45
*467 FE_PHN192_A_3
*468 FE_PHN191_A_2
*469 FE_PHN190_A_1
*470 FE_PHN189_B_109
*471 FE_PHN188_B_107
*472 FE_PHN187_B_104
*473 FE_PHN186_B_81
*474 FE_PHN185_B_79
*475 FE_PHN184_B_73
*476 FE_PHN183_B_70
*477 FE_PHN182_B_61
*478 FE_PHN181_B_14
*479 FE_PHN180_B_57
*480 FE_PHN179_B_47
*481 FE_PHN178_B_44
*482 FE_PHN177_A_108
*483 FE_PHN176_A_58
*484 FE_PHN175_A_56
*485 FE_PHN174_A_46
*486 FE_PHN173_B_112
*487 FE_PHN172_B_106
*488 FE_PHN171_B_68
*489 FE_PHN170_B_13
*490 FE_PHN169_B_46
*491 FE_PHN168_A_127
*492 FE_PHN167_A_107
*493 FE_PHN166_A_59
*494 FE_PHN165_A_41
*495 FE_PHN164_A_36
*496 FE_PHN163_A_28
*497 FE_PHN162_A_4
*498 FE_PHN161_B_108
*499 FE_PHN160_B_102
*500 FE_PHN159_B_82
*501 FE_PHN158_B_72
*502 FE_PHN157_B_71
*503 FE_PHN156_B_69
*504 FE_PHN155_A_89
*505 FE_PHN154_A_88
*506 FE_PHN153_A_76
*507 FE_PHN152_A_60
*508 FE_PHN151_A_57
*509 FE_PHN150_A_42
*510 FE_PHN149_B_83
*511 FE_PHN148_B_43
*512 FE_PHN147_B_41
*513 FE_PHN146_A_106
*514 FE_PHN145_A_90
*515 FE_PHN144_A_87
*516 FE_PHN143_A_81
*517 FE_PHN142_A_75
*518 FE_PHN141_A_61
*519 FE_PHN140_A_40
*520 FE_PHN139_A_37
*521 FE_PHN138_A_34
*522 FE_PHN137_A_29
*523 FE_PHN136_A_27
*524 FE_PHN135_A_5
*525 FE_PHN134_B_111
*526 FE_PHN133_B_101
*527 FE_PHN132_B_100
*528 FE_PHN131_B_99
*529 FE_PHN130_B_15
*530 FE_PHN129_A_105
*531 FE_PHN128_A_94
*532 FE_PHN127_A_92
*533 FE_PHN126_A_91
*534 FE_PHN125_A_86
*535 FE_PHN124_A_83
*536 FE_PHN123_A_82
*537 FE_PHN122_A_77
*538 FE_PHN121_A_73
*539 FE_PHN120_A_63
*540 FE_PHN119_A_35
*541 FE_PHN118_A_32
*542 FE_PHN117_A_30
*543 FE_PHN116_A_26
*544 FE_PHN115_A_6
*545 FE_PHN114_B_113
*546 FE_PHN113_B_110
*547 FE_PHN112_B_98
*548 FE_PHN111_B_84
*549 FE_PHN110_B_17
*550 FE_PHN109_B_16
*551 FE_PHN108_Ci
*552 FE_PHN107_B_42
*553 FE_PHN106_B_37
*554 FE_PHN105_B_36
*555 FE_PHN104_A_104
*556 FE_PHN103_A_102
*557 FE_PHN102_A_101
*558 FE_PHN101_A_80
*559 FE_PHN100_A_78
*560 FE_PHN99_A_74
*561 FE_PHN98_A_70
*562 FE_PHN97_A_64
*563 FE_PHN96_A_62
*564 FE_PHN95_A_39
*565 FE_PHN94_A_38
*566 FE_PHN93_A_33
*567 FE_PHN92_A_31
*568 FE_PHN91_A_24
*569 FE_PHN90_A_23
*570 FE_PHN89_A_9
*571 FE_PHN88_A_7
*572 FE_PHN87_B_116
*573 FE_PHN86_B_115
*574 FE_PHN85_B_114
*575 FE_PHN84_B_97
*576 FE_PHN83_B_96
*577 FE_PHN82_B_95
*578 FE_PHN81_B_94
*579 FE_PHN80_B_88
*580 FE_PHN79_B_87
*581 FE_PHN78_B_85
*582 FE_PHN77_B_40
*583 FE_PHN76_B_34
*584 FE_PHN75_A_103
*585 FE_PHN74_A_99
*586 FE_PHN73_A_95
*587 FE_PHN72_A_93
*588 FE_PHN71_A_85
*589 FE_PHN70_A_79
*590 FE_PHN69_A_72
*591 FE_PHN68_A_69
*592 FE_PHN67_A_66
*593 FE_PHN66_A_65
*594 FE_PHN65_A_25
*595 FE_PHN64_A_22
*596 FE_PHN63_A_14
*597 FE_PHN62_B_117
*598 FE_PHN61_B_93
*599 FE_PHN60_B_91
*600 FE_PHN59_B_86
*601 FE_PHN58_B_18
*602 FE_PHN57_B_39
*603 FE_PHN56_B_38
*604 FE_PHN55_B_35
*605 FE_PHN54_B_31
*606 FE_PHN53_B_20
*607 FE_PHN52_A_100
*608 FE_PHN51_A_97
*609 FE_PHN50_A_96
*610 FE_PHN49_A_84
*611 FE_PHN48_A_71
*612 FE_PHN47_A_21
*613 FE_PHN46_A_20
*614 FE_PHN45_A_19
*615 FE_PHN44_A_17
*616 FE_PHN43_A_10
*617 FE_PHN42_A_8
*618 FE_PHN41_B_119
*619 FE_PHN40_B_92
*620 FE_PHN39_B_89
*621 FE_PHN38_B_33
*622 FE_PHN37_B_30
*623 FE_PHN36_B_23
*624 FE_PHN35_B_22
*625 FE_PHN34_A_98
*626 FE_PHN33_A_68
*627 FE_PHN32_A_67
*628 FE_PHN31_A_18
*629 FE_PHN30_A_15
*630 FE_PHN29_A_13
*631 FE_PHN28_A_12
*632 FE_PHN27_A_11
*633 FE_PHN26_B_126
*634 FE_PHN25_B_123
*635 FE_PHN24_B_122
*636 FE_PHN23_B_120
*637 FE_PHN22_B_118
*638 FE_PHN21_B_90
*639 FE_PHN20_B_21
*640 FE_PHN19_B_19
*641 FE_PHN18_B_32
*642 FE_PHN17_B_29
*643 FE_PHN16_B_28
*644 FE_PHN15_B_27
*645 FE_PHN14_B_26
*646 FE_PHN13_B_25
*647 FE_PHN12_B_24
*648 FE_PHN11_A_16
*649 FE_PHN10_B_127
*650 FE_PHN9_B_125
*651 FE_PHN8_B_124
*652 FE_PHN7_B_121
*653 FE_OFN6_n386
*654 FE_OFN5_n386
*655 FE_OFN4_n386
*656 FE_OFN3_n386
*657 FE_OFN2_n386
*658 FE_OFN1_n386
*659 FE_OFN0_n386
*660 CITMP
*661 COTMP
*662 n386
*663 ATMP[127]
*664 ATMP[126]
*665 ATMP[125]
*666 ATMP[124]
*667 ATMP[123]
*668 ATMP[122]
*669 ATMP[121]
*670 ATMP[120]
*671 ATMP[119]
*672 ATMP[118]
*673 ATMP[117]
*674 ATMP[116]
*675 ATMP[115]
*676 ATMP[114]
*677 ATMP[113]
*678 ATMP[112]
*679 ATMP[111]
*680 ATMP[110]
*681 ATMP[109]
*682 ATMP[108]
*683 ATMP[107]
*684 ATMP[106]
*685 ATMP[105]
*686 ATMP[104]
*687 ATMP[103]
*688 ATMP[102]
*689 ATMP[101]
*690 ATMP[100]
*691 ATMP[99]
*692 ATMP[98]
*693 ATMP[97]
*694 ATMP[96]
*695 ATMP[95]
*696 ATMP[94]
*697 ATMP[93]
*698 ATMP[92]
*699 ATMP[91]
*700 ATMP[90]
*701 ATMP[89]
*702 ATMP[88]
*703 ATMP[87]
*704 ATMP[86]
*705 ATMP[85]
*706 ATMP[84]
*707 ATMP[83]
*708 ATMP[82]
*709 ATMP[81]
*710 ATMP[80]
*711 ATMP[79]
*712 ATMP[78]
*713 ATMP[77]
*714 ATMP[76]
*715 ATMP[75]
*716 ATMP[74]
*717 ATMP[73]
*718 ATMP[72]
*719 ATMP[71]
*720 ATMP[70]
*721 ATMP[69]
*722 ATMP[68]
*723 ATMP[67]
*724 ATMP[66]
*725 ATMP[65]
*726 ATMP[64]
*727 ATMP[63]
*728 ATMP[62]
*729 ATMP[61]
*730 ATMP[60]
*731 ATMP[59]
*732 ATMP[58]
*733 ATMP[57]
*734 ATMP[56]
*735 ATMP[55]
*736 ATMP[54]
*737 ATMP[53]
*738 ATMP[52]
*739 ATMP[51]
*740 ATMP[50]
*741 ATMP[49]
*742 ATMP[48]
*743 ATMP[47]
*744 ATMP[46]
*745 ATMP[45]
*746 ATMP[44]
*747 ATMP[43]
*748 ATMP[42]
*749 ATMP[41]
*750 ATMP[40]
*751 ATMP[39]
*752 ATMP[38]
*753 ATMP[37]
*754 ATMP[36]
*755 ATMP[35]
*756 ATMP[34]
*757 ATMP[33]
*758 ATMP[32]
*759 ATMP[31]
*760 ATMP[30]
*761 ATMP[29]
*762 ATMP[28]
*763 ATMP[27]
*764 ATMP[26]
*765 ATMP[25]
*766 ATMP[24]
*767 ATMP[23]
*768 ATMP[22]
*769 ATMP[21]
*770 ATMP[20]
*771 ATMP[19]
*772 ATMP[18]
*773 ATMP[17]
*774 ATMP[16]
*775 ATMP[15]
*776 ATMP[14]
*777 ATMP[13]
*778 ATMP[12]
*779 ATMP[11]
*780 ATMP[10]
*781 ATMP[9]
*782 ATMP[8]
*783 ATMP[7]
*784 ATMP[6]
*785 ATMP[5]
*786 ATMP[4]
*787 ATMP[3]
*788 ATMP[2]
*789 ATMP[1]
*790 ATMP[0]
*791 BTMP[127]
*792 BTMP[126]
*793 BTMP[125]
*794 BTMP[124]
*795 BTMP[123]
*796 BTMP[122]
*797 BTMP[121]
*798 BTMP[120]
*799 BTMP[119]
*800 BTMP[118]
*801 BTMP[117]
*802 BTMP[116]
*803 BTMP[115]
*804 BTMP[114]
*805 BTMP[113]
*806 BTMP[112]
*807 BTMP[111]
*808 BTMP[110]
*809 BTMP[109]
*810 BTMP[108]
*811 BTMP[107]
*812 BTMP[106]
*813 BTMP[105]
*814 BTMP[104]
*815 BTMP[103]
*816 BTMP[102]
*817 BTMP[101]
*818 BTMP[100]
*819 BTMP[99]
*820 BTMP[98]
*821 BTMP[97]
*822 BTMP[96]
*823 BTMP[95]
*824 BTMP[94]
*825 BTMP[93]
*826 BTMP[92]
*827 BTMP[91]
*828 BTMP[90]
*829 BTMP[89]
*830 BTMP[88]
*831 BTMP[87]
*832 BTMP[86]
*833 BTMP[85]
*834 BTMP[84]
*835 BTMP[83]
*836 BTMP[82]
*837 BTMP[81]
*838 BTMP[80]
*839 BTMP[79]
*840 BTMP[78]
*841 BTMP[77]
*842 BTMP[76]
*843 BTMP[75]
*844 BTMP[74]
*845 BTMP[73]
*846 BTMP[72]
*847 BTMP[71]
*848 BTMP[70]
*849 BTMP[69]
*850 BTMP[68]
*851 BTMP[67]
*852 BTMP[66]
*853 BTMP[65]
*854 BTMP[64]
*855 BTMP[63]
*856 BTMP[62]
*857 BTMP[61]
*858 BTMP[60]
*859 BTMP[59]
*860 BTMP[58]
*861 BTMP[57]
*862 BTMP[56]
*863 BTMP[55]
*864 BTMP[54]
*865 BTMP[53]
*866 BTMP[52]
*867 BTMP[51]
*868 BTMP[50]
*869 BTMP[49]
*870 BTMP[48]
*871 BTMP[47]
*872 BTMP[46]
*873 BTMP[45]
*874 BTMP[44]
*875 BTMP[43]
*876 BTMP[42]
*877 BTMP[41]
*878 BTMP[40]
*879 BTMP[39]
*880 BTMP[38]
*881 BTMP[37]
*882 BTMP[36]
*883 BTMP[35]
*884 BTMP[34]
*885 BTMP[33]
*886 BTMP[32]
*887 BTMP[31]
*888 BTMP[30]
*889 BTMP[29]
*890 BTMP[28]
*891 BTMP[27]
*892 BTMP[26]
*893 BTMP[25]
*894 BTMP[24]
*895 BTMP[23]
*896 BTMP[22]
*897 BTMP[21]
*898 BTMP[20]
*899 BTMP[19]
*900 BTMP[18]
*901 BTMP[17]
*902 BTMP[16]
*903 BTMP[15]
*904 BTMP[14]
*905 BTMP[13]
*906 BTMP[12]
*907 BTMP[11]
*908 BTMP[10]
*909 BTMP[9]
*910 BTMP[8]
*911 BTMP[7]
*912 BTMP[6]
*913 BTMP[5]
*914 BTMP[4]
*915 BTMP[3]
*916 BTMP[2]
*917 BTMP[1]
*918 BTMP[0]
*919 STMP[127]
*920 STMP[126]
*921 STMP[125]
*922 STMP[124]
*923 STMP[123]
*924 STMP[122]
*925 STMP[121]
*926 STMP[120]
*927 STMP[119]
*928 STMP[118]
*929 STMP[117]
*930 STMP[116]
*931 STMP[115]
*932 STMP[114]
*933 STMP[113]
*934 STMP[112]
*935 STMP[111]
*936 STMP[110]
*937 STMP[109]
*938 STMP[108]
*939 STMP[107]
*940 STMP[106]
*941 STMP[105]
*942 STMP[104]
*943 STMP[103]
*944 STMP[102]
*945 STMP[101]
*946 STMP[100]
*947 STMP[99]
*948 STMP[98]
*949 STMP[97]
*950 STMP[96]
*951 STMP[95]
*952 STMP[94]
*953 STMP[93]
*954 STMP[92]
*955 STMP[91]
*956 STMP[90]
*957 STMP[89]
*958 STMP[88]
*959 STMP[87]
*960 STMP[86]
*961 STMP[85]
*962 STMP[84]
*963 STMP[83]
*964 STMP[82]
*965 STMP[81]
*966 STMP[80]
*967 STMP[79]
*968 STMP[78]
*969 STMP[77]
*970 STMP[76]
*971 STMP[75]
*972 STMP[74]
*973 STMP[73]
*974 STMP[72]
*975 STMP[71]
*976 STMP[70]
*977 STMP[69]
*978 STMP[68]
*979 STMP[67]
*980 STMP[66]
*981 STMP[65]
*982 STMP[64]
*983 STMP[63]
*984 STMP[62]
*985 STMP[61]
*986 STMP[60]
*987 STMP[59]
*988 STMP[58]
*989 STMP[57]
*990 STMP[56]
*991 STMP[55]
*992 STMP[54]
*993 STMP[53]
*994 STMP[52]
*995 STMP[51]
*996 STMP[50]
*997 STMP[49]
*998 STMP[48]
*999 STMP[47]
*1000 STMP[46]
*1001 STMP[45]
*1002 STMP[44]
*1003 STMP[43]
*1004 STMP[42]
*1005 STMP[41]
*1006 STMP[40]
*1007 STMP[39]
*1008 STMP[38]
*1009 STMP[37]
*1010 STMP[36]
*1011 STMP[35]
*1012 STMP[34]
*1013 STMP[33]
*1014 STMP[32]
*1015 STMP[31]
*1016 STMP[30]
*1017 STMP[29]
*1018 STMP[28]
*1019 STMP[27]
*1020 STMP[26]
*1021 STMP[25]
*1022 STMP[24]
*1023 STMP[23]
*1024 STMP[22]
*1025 STMP[21]
*1026 STMP[20]
*1027 STMP[19]
*1028 STMP[18]
*1029 STMP[17]
*1030 STMP[16]
*1031 STMP[15]
*1032 STMP[14]
*1033 STMP[13]
*1034 STMP[12]
*1035 STMP[11]
*1036 STMP[10]
*1037 STMP[9]
*1038 STMP[8]
*1039 STMP[7]
*1040 STMP[6]
*1041 STMP[5]
*1042 STMP[4]
*1043 STMP[3]
*1044 STMP[2]
*1045 STMP[1]
*1046 STMP[0]
*1047 maprca/CTMP[127]
*1048 maprca/CTMP[126]
*1049 maprca/CTMP[125]
*1050 maprca/CTMP[124]
*1051 maprca/CTMP[123]
*1052 maprca/CTMP[122]
*1053 maprca/CTMP[121]
*1054 maprca/CTMP[120]
*1055 maprca/CTMP[119]
*1056 maprca/CTMP[118]
*1057 maprca/CTMP[117]
*1058 maprca/CTMP[116]
*1059 maprca/CTMP[115]
*1060 maprca/CTMP[114]
*1061 maprca/CTMP[113]
*1062 maprca/CTMP[112]
*1063 maprca/CTMP[111]
*1064 maprca/CTMP[110]
*1065 maprca/CTMP[109]
*1066 maprca/CTMP[108]
*1067 maprca/CTMP[107]
*1068 maprca/CTMP[106]
*1069 maprca/CTMP[105]
*1070 maprca/CTMP[104]
*1071 maprca/CTMP[103]
*1072 maprca/CTMP[102]
*1073 maprca/CTMP[101]
*1074 maprca/CTMP[100]
*1075 maprca/CTMP[99]
*1076 maprca/CTMP[98]
*1077 maprca/CTMP[97]
*1078 maprca/CTMP[96]
*1079 maprca/CTMP[95]
*1080 maprca/CTMP[94]
*1081 maprca/CTMP[93]
*1082 maprca/CTMP[92]
*1083 maprca/CTMP[91]
*1084 maprca/CTMP[90]
*1085 maprca/CTMP[89]
*1086 maprca/CTMP[88]
*1087 maprca/CTMP[87]
*1088 maprca/CTMP[86]
*1089 maprca/CTMP[85]
*1090 maprca/CTMP[84]
*1091 maprca/CTMP[83]
*1092 maprca/CTMP[82]
*1093 maprca/CTMP[81]
*1094 maprca/CTMP[80]
*1095 maprca/CTMP[79]
*1096 maprca/CTMP[78]
*1097 maprca/CTMP[77]
*1098 maprca/CTMP[76]
*1099 maprca/CTMP[75]
*1100 maprca/CTMP[74]
*1101 maprca/CTMP[73]
*1102 maprca/CTMP[72]
*1103 maprca/CTMP[71]
*1104 maprca/CTMP[70]
*1105 maprca/CTMP[69]
*1106 maprca/CTMP[68]
*1107 maprca/CTMP[67]
*1108 maprca/CTMP[66]
*1109 maprca/CTMP[65]
*1110 maprca/CTMP[64]
*1111 maprca/CTMP[63]
*1112 maprca/CTMP[62]
*1113 maprca/CTMP[61]
*1114 maprca/CTMP[60]
*1115 maprca/CTMP[59]
*1116 maprca/CTMP[58]
*1117 maprca/CTMP[57]
*1118 maprca/CTMP[56]
*1119 maprca/CTMP[55]
*1120 maprca/CTMP[54]
*1121 maprca/CTMP[53]
*1122 maprca/CTMP[52]
*1123 maprca/CTMP[51]
*1124 maprca/CTMP[50]
*1125 maprca/CTMP[49]
*1126 maprca/CTMP[48]
*1127 maprca/CTMP[47]
*1128 maprca/CTMP[46]
*1129 maprca/CTMP[45]
*1130 maprca/CTMP[44]
*1131 maprca/CTMP[43]
*1132 maprca/CTMP[42]
*1133 maprca/CTMP[41]
*1134 maprca/CTMP[40]
*1135 maprca/CTMP[39]
*1136 maprca/CTMP[38]
*1137 maprca/CTMP[37]
*1138 maprca/CTMP[36]
*1139 maprca/CTMP[35]
*1140 maprca/CTMP[34]
*1141 maprca/CTMP[33]
*1142 maprca/CTMP[32]
*1143 maprca/CTMP[31]
*1144 maprca/CTMP[30]
*1145 maprca/CTMP[29]
*1146 maprca/CTMP[28]
*1147 maprca/CTMP[27]
*1148 maprca/CTMP[26]
*1149 maprca/CTMP[25]
*1150 maprca/CTMP[24]
*1151 maprca/CTMP[23]
*1152 maprca/CTMP[22]
*1153 maprca/CTMP[21]
*1154 maprca/CTMP[20]
*1155 maprca/CTMP[19]
*1156 maprca/CTMP[18]
*1157 maprca/CTMP[17]
*1158 maprca/CTMP[16]
*1159 maprca/CTMP[15]
*1160 maprca/CTMP[14]
*1161 maprca/CTMP[13]
*1162 maprca/CTMP[12]
*1163 maprca/CTMP[11]
*1164 maprca/CTMP[10]
*1165 maprca/CTMP[9]
*1166 maprca/CTMP[8]
*1167 maprca/CTMP[7]
*1168 maprca/CTMP[6]
*1169 maprca/CTMP[5]
*1170 maprca/CTMP[4]
*1171 maprca/CTMP[3]
*1172 maprca/CTMP[2]
*1173 maprca/CTMP[1]
*1174 maprca/FAI_1/n1
*1175 maprca/FAI_1/n2
*1176 maprca/FAI_1/n3
*1177 maprca/FAI_2/n1
*1178 maprca/FAI_2/n2
*1179 maprca/FAI_2/n3
*1180 maprca/FAI_2/n4
*1181 maprca/FAI_3/n1
*1182 maprca/FAI_3/n2
*1183 maprca/FAI_3/n3
*1184 maprca/FAI_3/n4
*1185 maprca/FAI_4/n1
*1186 maprca/FAI_4/n2
*1187 maprca/FAI_4/n3
*1188 maprca/FAI_4/n4
*1189 maprca/FAI_5/n1
*1190 maprca/FAI_5/n2
*1191 maprca/FAI_5/n3
*1192 maprca/FAI_5/n4
*1193 maprca/FAI_6/n1
*1194 maprca/FAI_6/n2
*1195 maprca/FAI_6/n3
*1196 maprca/FAI_6/n4
*1197 maprca/FAI_7/n1
*1198 maprca/FAI_7/n2
*1199 maprca/FAI_7/n3
*1200 maprca/FAI_7/n4
*1201 maprca/FAI_8/n1
*1202 maprca/FAI_8/n2
*1203 maprca/FAI_8/n3
*1204 maprca/FAI_8/n4
*1205 maprca/FAI_9/n1
*1206 maprca/FAI_9/n2
*1207 maprca/FAI_9/n3
*1208 maprca/FAI_9/n4
*1209 maprca/FAI_10/n1
*1210 maprca/FAI_10/n2
*1211 maprca/FAI_10/n3
*1212 maprca/FAI_10/n4
*1213 maprca/FAI_11/n1
*1214 maprca/FAI_11/n2
*1215 maprca/FAI_11/n3
*1216 maprca/FAI_11/n4
*1217 maprca/FAI_12/n1
*1218 maprca/FAI_12/n2
*1219 maprca/FAI_12/n3
*1220 maprca/FAI_12/n4
*1221 maprca/FAI_13/n1
*1222 maprca/FAI_13/n2
*1223 maprca/FAI_13/n3
*1224 maprca/FAI_13/n4
*1225 maprca/FAI_14/n1
*1226 maprca/FAI_14/n2
*1227 maprca/FAI_14/n3
*1228 maprca/FAI_14/n4
*1229 maprca/FAI_15/n1
*1230 maprca/FAI_15/n2
*1231 maprca/FAI_15/n3
*1232 maprca/FAI_15/n4
*1233 maprca/FAI_16/n1
*1234 maprca/FAI_16/n2
*1235 maprca/FAI_16/n3
*1236 maprca/FAI_16/n4
*1237 maprca/FAI_17/n1
*1238 maprca/FAI_17/n2
*1239 maprca/FAI_17/n3
*1240 maprca/FAI_17/n4
*1241 maprca/FAI_18/n1
*1242 maprca/FAI_18/n2
*1243 maprca/FAI_18/n3
*1244 maprca/FAI_18/n4
*1245 maprca/FAI_19/n1
*1246 maprca/FAI_19/n2
*1247 maprca/FAI_19/n3
*1248 maprca/FAI_19/n4
*1249 maprca/FAI_20/n1
*1250 maprca/FAI_20/n2
*1251 maprca/FAI_20/n3
*1252 maprca/FAI_20/n4
*1253 maprca/FAI_21/n1
*1254 maprca/FAI_21/n2
*1255 maprca/FAI_21/n3
*1256 maprca/FAI_21/n4
*1257 maprca/FAI_22/n1
*1258 maprca/FAI_22/n2
*1259 maprca/FAI_22/n3
*1260 maprca/FAI_22/n4
*1261 maprca/FAI_23/n1
*1262 maprca/FAI_23/n2
*1263 maprca/FAI_23/n3
*1264 maprca/FAI_23/n4
*1265 maprca/FAI_24/n1
*1266 maprca/FAI_24/n2
*1267 maprca/FAI_24/n3
*1268 maprca/FAI_24/n4
*1269 maprca/FAI_25/n1
*1270 maprca/FAI_25/n2
*1271 maprca/FAI_25/n3
*1272 maprca/FAI_26/n1
*1273 maprca/FAI_26/n2
*1274 maprca/FAI_26/n3
*1275 maprca/FAI_27/n1
*1276 maprca/FAI_27/n2
*1277 maprca/FAI_27/n3
*1278 maprca/FAI_28/n1
*1279 maprca/FAI_28/n2
*1280 maprca/FAI_28/n3
*1281 maprca/FAI_29/n1
*1282 maprca/FAI_29/n2
*1283 maprca/FAI_29/n3
*1284 maprca/FAI_30/n1
*1285 maprca/FAI_30/n2
*1286 maprca/FAI_30/n3
*1287 maprca/FAI_31/n1
*1288 maprca/FAI_31/n2
*1289 maprca/FAI_31/n3
*1290 maprca/FAI_32/n1
*1291 maprca/FAI_32/n2
*1292 maprca/FAI_32/n3
*1293 maprca/FAI_33/n1
*1294 maprca/FAI_33/n2
*1295 maprca/FAI_33/n3
*1296 maprca/FAI_34/n1
*1297 maprca/FAI_34/n2
*1298 maprca/FAI_34/n3
*1299 maprca/FAI_35/n1
*1300 maprca/FAI_35/n2
*1301 maprca/FAI_35/n3
*1302 maprca/FAI_36/n1
*1303 maprca/FAI_36/n2
*1304 maprca/FAI_36/n3
*1305 maprca/FAI_37/n1
*1306 maprca/FAI_37/n2
*1307 maprca/FAI_37/n3
*1308 maprca/FAI_38/n1
*1309 maprca/FAI_38/n2
*1310 maprca/FAI_38/n3
*1311 maprca/FAI_39/n1
*1312 maprca/FAI_39/n2
*1313 maprca/FAI_39/n3
*1314 maprca/FAI_40/n1
*1315 maprca/FAI_40/n2
*1316 maprca/FAI_40/n3
*1317 maprca/FAI_41/n1
*1318 maprca/FAI_41/n2
*1319 maprca/FAI_41/n3
*1320 maprca/FAI_42/n1
*1321 maprca/FAI_42/n2
*1322 maprca/FAI_42/n3
*1323 maprca/FAI_43/n1
*1324 maprca/FAI_43/n2
*1325 maprca/FAI_43/n3
*1326 maprca/FAI_44/n1
*1327 maprca/FAI_44/n2
*1328 maprca/FAI_44/n3
*1329 maprca/FAI_45/n1
*1330 maprca/FAI_45/n2
*1331 maprca/FAI_45/n3
*1332 maprca/FAI_46/n1
*1333 maprca/FAI_46/n2
*1334 maprca/FAI_46/n3
*1335 maprca/FAI_47/n1
*1336 maprca/FAI_47/n2
*1337 maprca/FAI_47/n3
*1338 maprca/FAI_48/n1
*1339 maprca/FAI_48/n2
*1340 maprca/FAI_48/n3
*1341 maprca/FAI_49/n1
*1342 maprca/FAI_49/n2
*1343 maprca/FAI_49/n3
*1344 maprca/FAI_50/n1
*1345 maprca/FAI_50/n2
*1346 maprca/FAI_50/n3
*1347 maprca/FAI_51/n1
*1348 maprca/FAI_51/n2
*1349 maprca/FAI_51/n3
*1350 maprca/FAI_52/n1
*1351 maprca/FAI_52/n2
*1352 maprca/FAI_52/n3
*1353 maprca/FAI_53/n1
*1354 maprca/FAI_53/n2
*1355 maprca/FAI_53/n3
*1356 maprca/FAI_54/n1
*1357 maprca/FAI_54/n2
*1358 maprca/FAI_54/n3
*1359 maprca/FAI_55/n1
*1360 maprca/FAI_55/n2
*1361 maprca/FAI_55/n3
*1362 maprca/FAI_56/n1
*1363 maprca/FAI_56/n2
*1364 maprca/FAI_56/n3
*1365 maprca/FAI_57/n1
*1366 maprca/FAI_57/n2
*1367 maprca/FAI_57/n3
*1368 maprca/FAI_58/n1
*1369 maprca/FAI_58/n2
*1370 maprca/FAI_58/n3
*1371 maprca/FAI_59/n1
*1372 maprca/FAI_59/n2
*1373 maprca/FAI_59/n3
*1374 maprca/FAI_60/n1
*1375 maprca/FAI_60/n2
*1376 maprca/FAI_60/n3
*1377 maprca/FAI_61/n1
*1378 maprca/FAI_61/n2
*1379 maprca/FAI_61/n3
*1380 maprca/FAI_62/n1
*1381 maprca/FAI_62/n2
*1382 maprca/FAI_62/n3
*1383 maprca/FAI_63/n1
*1384 maprca/FAI_63/n2
*1385 maprca/FAI_63/n3
*1386 maprca/FAI_64/n1
*1387 maprca/FAI_64/n2
*1388 maprca/FAI_64/n3
*1389 maprca/FAI_65/n1
*1390 maprca/FAI_65/n2
*1391 maprca/FAI_65/n3
*1392 maprca/FAI_66/n1
*1393 maprca/FAI_66/n2
*1394 maprca/FAI_66/n3
*1395 maprca/FAI_67/n1
*1396 maprca/FAI_67/n2
*1397 maprca/FAI_67/n3
*1398 maprca/FAI_68/n1
*1399 maprca/FAI_68/n2
*1400 maprca/FAI_68/n3
*1401 maprca/FAI_69/n1
*1402 maprca/FAI_69/n2
*1403 maprca/FAI_69/n3
*1404 maprca/FAI_70/n1
*1405 maprca/FAI_70/n2
*1406 maprca/FAI_70/n3
*1407 maprca/FAI_71/n1
*1408 maprca/FAI_71/n2
*1409 maprca/FAI_71/n3
*1410 maprca/FAI_72/n1
*1411 maprca/FAI_72/n2
*1412 maprca/FAI_72/n3
*1413 maprca/FAI_73/n1
*1414 maprca/FAI_73/n2
*1415 maprca/FAI_73/n3
*1416 maprca/FAI_74/n1
*1417 maprca/FAI_74/n2
*1418 maprca/FAI_74/n3
*1419 maprca/FAI_75/n1
*1420 maprca/FAI_75/n2
*1421 maprca/FAI_75/n3
*1422 maprca/FAI_76/n1
*1423 maprca/FAI_76/n2
*1424 maprca/FAI_76/n3
*1425 maprca/FAI_77/n1
*1426 maprca/FAI_77/n2
*1427 maprca/FAI_77/n3
*1428 maprca/FAI_78/n1
*1429 maprca/FAI_78/n2
*1430 maprca/FAI_78/n3
*1431 maprca/FAI_79/n1
*1432 maprca/FAI_79/n2
*1433 maprca/FAI_79/n3
*1434 maprca/FAI_80/n1
*1435 maprca/FAI_80/n2
*1436 maprca/FAI_80/n3
*1437 maprca/FAI_81/n1
*1438 maprca/FAI_81/n2
*1439 maprca/FAI_81/n3
*1440 maprca/FAI_82/n1
*1441 maprca/FAI_82/n2
*1442 maprca/FAI_82/n3
*1443 maprca/FAI_83/n1
*1444 maprca/FAI_83/n2
*1445 maprca/FAI_83/n3
*1446 maprca/FAI_84/n1
*1447 maprca/FAI_84/n2
*1448 maprca/FAI_84/n3
*1449 maprca/FAI_85/n1
*1450 maprca/FAI_85/n2
*1451 maprca/FAI_85/n3
*1452 maprca/FAI_86/n1
*1453 maprca/FAI_86/n2
*1454 maprca/FAI_86/n3
*1455 maprca/FAI_87/n1
*1456 maprca/FAI_87/n2
*1457 maprca/FAI_87/n3
*1458 maprca/FAI_88/n1
*1459 maprca/FAI_88/n2
*1460 maprca/FAI_88/n3
*1461 maprca/FAI_89/n1
*1462 maprca/FAI_89/n2
*1463 maprca/FAI_89/n3
*1464 maprca/FAI_90/n1
*1465 maprca/FAI_90/n2
*1466 maprca/FAI_90/n3
*1467 maprca/FAI_91/n1
*1468 maprca/FAI_91/n2
*1469 maprca/FAI_91/n3
*1470 maprca/FAI_92/n1
*1471 maprca/FAI_92/n2
*1472 maprca/FAI_92/n3
*1473 maprca/FAI_93/n1
*1474 maprca/FAI_93/n2
*1475 maprca/FAI_93/n3
*1476 maprca/FAI_94/n1
*1477 maprca/FAI_94/n2
*1478 maprca/FAI_94/n3
*1479 maprca/FAI_95/n1
*1480 maprca/FAI_95/n2
*1481 maprca/FAI_95/n3
*1482 maprca/FAI_96/n1
*1483 maprca/FAI_96/n2
*1484 maprca/FAI_96/n3
*1485 maprca/FAI_97/n1
*1486 maprca/FAI_97/n2
*1487 maprca/FAI_97/n3
*1488 maprca/FAI_98/n1
*1489 maprca/FAI_98/n2
*1490 maprca/FAI_98/n3
*1491 maprca/FAI_99/n1
*1492 maprca/FAI_99/n2
*1493 maprca/FAI_99/n3
*1494 maprca/FAI_100/n1
*1495 maprca/FAI_100/n2
*1496 maprca/FAI_100/n3
*1497 maprca/FAI_101/n1
*1498 maprca/FAI_101/n2
*1499 maprca/FAI_101/n3
*1500 maprca/FAI_102/n1
*1501 maprca/FAI_102/n2
*1502 maprca/FAI_102/n3
*1503 maprca/FAI_103/n1
*1504 maprca/FAI_103/n2
*1505 maprca/FAI_103/n3
*1506 maprca/FAI_104/n1
*1507 maprca/FAI_104/n2
*1508 maprca/FAI_104/n3
*1509 maprca/FAI_105/n1
*1510 maprca/FAI_105/n2
*1511 maprca/FAI_105/n3
*1512 maprca/FAI_105/n4
*1513 maprca/FAI_106/n1
*1514 maprca/FAI_106/n2
*1515 maprca/FAI_106/n3
*1516 maprca/FAI_106/n4
*1517 maprca/FAI_107/n1
*1518 maprca/FAI_107/n2
*1519 maprca/FAI_107/n3
*1520 maprca/FAI_107/n4
*1521 maprca/FAI_108/n1
*1522 maprca/FAI_108/n2
*1523 maprca/FAI_108/n3
*1524 maprca/FAI_108/n4
*1525 maprca/FAI_109/n1
*1526 maprca/FAI_109/n2
*1527 maprca/FAI_109/n3
*1528 maprca/FAI_109/n4
*1529 maprca/FAI_110/n1
*1530 maprca/FAI_110/n2
*1531 maprca/FAI_110/n3
*1532 maprca/FAI_110/n4
*1533 maprca/FAI_111/n1
*1534 maprca/FAI_111/n2
*1535 maprca/FAI_111/n3
*1536 maprca/FAI_111/n4
*1537 maprca/FAI_112/n1
*1538 maprca/FAI_112/n2
*1539 maprca/FAI_112/n3
*1540 maprca/FAI_112/n4
*1541 maprca/FAI_113/n1
*1542 maprca/FAI_113/n2
*1543 maprca/FAI_113/n3
*1544 maprca/FAI_113/n4
*1545 maprca/FAI_114/n1
*1546 maprca/FAI_114/n2
*1547 maprca/FAI_114/n3
*1548 maprca/FAI_114/n4
*1549 maprca/FAI_115/n1
*1550 maprca/FAI_115/n2
*1551 maprca/FAI_115/n3
*1552 maprca/FAI_115/n4
*1553 maprca/FAI_116/n1
*1554 maprca/FAI_116/n2
*1555 maprca/FAI_116/n3
*1556 maprca/FAI_116/n4
*1557 maprca/FAI_117/n1
*1558 maprca/FAI_117/n2
*1559 maprca/FAI_117/n3
*1560 maprca/FAI_117/n4
*1561 maprca/FAI_118/n1
*1562 maprca/FAI_118/n2
*1563 maprca/FAI_118/n3
*1564 maprca/FAI_118/n4
*1565 maprca/FAI_119/n1
*1566 maprca/FAI_119/n2
*1567 maprca/FAI_119/n3
*1568 maprca/FAI_119/n4
*1569 maprca/FAI_120/n1
*1570 maprca/FAI_120/n2
*1571 maprca/FAI_120/n3
*1572 maprca/FAI_120/n4
*1573 maprca/FAI_121/n1
*1574 maprca/FAI_121/n2
*1575 maprca/FAI_121/n3
*1576 maprca/FAI_121/n4
*1577 maprca/FAI_122/n1
*1578 maprca/FAI_122/n2
*1579 maprca/FAI_122/n3
*1580 maprca/FAI_122/n4
*1581 maprca/FAI_123/n1
*1582 maprca/FAI_123/n2
*1583 maprca/FAI_123/n3
*1584 maprca/FAI_123/n4
*1585 maprca/FAI_124/n1
*1586 maprca/FAI_124/n2
*1587 maprca/FAI_124/n3
*1588 maprca/FAI_124/n4
*1589 maprca/FAI_125/n1
*1590 maprca/FAI_125/n2
*1591 maprca/FAI_125/n3
*1592 maprca/FAI_125/n4
*1593 maprca/FAI_126/n1
*1594 maprca/FAI_126/n2
*1595 maprca/FAI_126/n3
*1596 maprca/FAI_126/n4
*1597 maprca/FAI_127/n1
*1598 maprca/FAI_127/n2
*1599 maprca/FAI_127/n3
*1600 maprca/FAI_127/n4
*1601 maprca/FAI_128/n1
*1602 maprca/FAI_128/n2
*1603 maprca/FAI_128/n3
*1604 maprca/FAI_128/n4
*1605 FE_PHC270_RST
*1606 FE_PHC269_RST
*1607 FE_PHC268_RST
*1608 FE_PHC267_RST
*1609 FE_PHC266_RST
*1610 FE_PHC265_RST
*1611 FE_PHC264_RST
*1612 FE_PHC263_B_1
*1613 FE_PHC262_B_0
*1614 FE_PHC261_B_3
*1615 FE_PHC260_B_2
*1616 FE_PHC259_B_4
*1617 FE_PHC258_B_7
*1618 FE_PHC257_B_5
*1619 FE_PHC256_A_118
*1620 FE_PHC255_A_114
*1621 FE_PHC254_B_54
*1622 FE_PHC253_A_115
*1623 FE_PHC252_A_113
*1624 FE_PHC251_A_111
*1625 FE_PHC250_B_76
*1626 FE_PHC249_B_65
*1627 FE_PHC248_B_64
*1628 FE_PHC247_B_8
*1629 FE_PHC246_B_6
*1630 FE_PHC245_B_51
*1631 FE_PHC244_B_50
*1632 FE_PHC243_B_49
*1633 FE_PHC242_A_124
*1634 FE_PHC241_A_122
*1635 FE_PHC240_A_121
*1636 FE_PHC239_A_120
*1637 FE_PHC238_A_119
*1638 FE_PHC237_A_112
*1639 FE_PHC236_A_52
*1640 FE_PHC235_A_51
*1641 FE_PHC234_B_105
*1642 FE_PHC233_B_80
*1643 FE_PHC232_B_77
*1644 FE_PHC231_B_67
*1645 FE_PHC230_B_63
*1646 FE_PHC229_B_62
*1647 FE_PHC228_B_60
*1648 FE_PHC227_B_11
*1649 FE_PHC226_B_9
*1650 FE_PHC225_B_53
*1651 FE_PHC224_B_52
*1652 FE_PHC223_A_54
*1653 FE_PHC222_A_50
*1654 FE_PHC221_A_47
*1655 FE_PHC220_A_0
*1656 FE_PHC219_B_66
*1657 FE_PHC218_B_56
*1658 FE_PHC217_B_55
*1659 FE_PHC216_A_116
*1660 FE_PHC215_A_55
*1661 FE_PHC214_A_53
*1662 FE_PHC213_A_49
*1663 FE_PHC212_A_48
*1664 FE_PHC211_A_44
*1665 FE_PHC210_A_43
*1666 FE_PHC209_B_103
*1667 FE_PHC208_B_78
*1668 FE_PHC207_B_75
*1669 FE_PHC206_B_74
*1670 FE_PHC205_B_59
*1671 FE_PHC204_B_12
*1672 FE_PHC203_B_10
*1673 FE_PHC202_B_58
*1674 FE_PHC201_B_48
*1675 FE_PHC200_B_45
*1676 FE_PHC199_A_126
*1677 FE_PHC198_A_125
*1678 FE_PHC197_A_123
*1679 FE_PHC196_A_117
*1680 FE_PHC195_A_110
*1681 FE_PHC194_A_109
*1682 FE_PHC193_A_45
*1683 FE_PHC192_A_3
*1684 FE_PHC191_A_2
*1685 FE_PHC190_A_1
*1686 FE_PHC189_B_109
*1687 FE_PHC188_B_107
*1688 FE_PHC187_B_104