*SPEF "IEEE 1481-1998"
*DESIGN "completeAdder"
*DATE "Thu Jun 13 13:23:00 2019"
*VENDOR "Cadence Design Systems, Inc."
*PROGRAM "Innovus"
*VERSION "17.11-s080_1"
*DESIGN_FLOW "COUPLING C" "PIN_CAP NONE" "NAME_SCOPE LOCAL"
*DIVIDER /
*DELIMITER :
*BUS_DELIMITER []
*T_UNIT 1 NS
*C_UNIT 1 PF
*R_UNIT 1 OHM
*L_UNIT 1 HENRY

// MMMC spef file for corner 'standard'

*NAME_MAP

*1 CSSG/CSB_3/MUX21_1/FE_DBTN1_carryConnect_2
*2 FE_DBTN0_B_0
*3 A[31]
*4 A[30]
*5 A[29]
*6 A[28]
*7 A[27]
*8 A[26]
*9 A[25]
*10 A[24]
*11 A[23]
*12 A[22]
*13 A[21]
*14 A[20]
*15 A[19]
*16 A[18]
*17 A[17]
*18 A[16]
*19 A[15]
*20 A[14]
*21 A[13]
*22 A[12]
*23 A[11]
*24 A[10]
*25 A[9]
*26 A[8]
*27 A[7]
*28 A[6]
*29 A[5]
*30 A[4]
*31 A[3]
*32 A[2]
*33 A[1]
*34 A[0]
*35 B[31]
*36 B[30]
*37 B[29]
*38 B[28]
*39 B[27]
*40 B[26]
*41 B[25]
*42 B[24]
*43 B[23]
*44 B[22]
*45 B[21]
*46 B[20]
*47 B[19]
*48 B[18]
*49 B[17]
*50 B[16]
*51 B[15]
*52 B[14]
*53 B[13]
*54 B[12]
*55 B[11]
*56 B[10]
*57 B[9]
*58 B[8]
*59 B[7]
*60 B[6]
*61 B[5]
*62 B[4]
*63 B[3]
*64 B[2]
*65 B[1]
*66 B[0]
*67 Sum[31]
*68 Sum[30]
*69 Sum[29]
*70 Sum[28]
*71 Sum[27]
*72 Sum[26]
*73 Sum[25]
*74 Sum[24]
*75 Sum[23]
*76 Sum[22]
*77 Sum[21]
*78 Sum[20]
*79 Sum[19]
*80 Sum[18]
*81 Sum[17]
*82 Sum[16]
*83 Sum[15]
*84 Sum[14]
*85 Sum[13]
*86 Sum[12]
*87 Sum[11]
*88 Sum[10]
*89 Sum[9]
*90 Sum[8]
*91 Sum[7]
*92 Sum[6]
*93 Sum[5]
*94 Sum[4]
*95 Sum[3]
*96 Sum[2]
*97 Sum[1]
*98 Sum[0]
*99 Cin
*100 Cout
*101 net1794
*102 n3
*103 n8
*104 n10
*105 B_XORed[31]
*106 B_XORed[30]
*107 B_XORed[29]
*108 B_XORed[28]
*109 B_XORed[27]
*110 B_XORed[26]
*111 B_XORed[25]
*112 B_XORed[24]
*113 B_XORed[23]
*114 B_XORed[22]
*115 B_XORed[21]
*116 B_XORed[20]
*117 B_XORed[19]
*118 B_XORed[18]
*119 B_XORed[17]
*120 B_XORed[16]
*121 B_XORed[15]
*122 B_XORed[14]
*123 B_XORed[13]
*124 B_XORed[12]
*125 B_XORed[11]
*126 B_XORed[10]
*127 B_XORed[9]
*128 B_XORed[8]
*129 B_XORed[7]
*130 B_XORed[6]
*131 B_XORed[5]
*132 B_XORed[4]
*133 B_XORed[3]
*134 B_XORed[2]
*135 B_XORed[1]
*136 B_XORed[0]
*137 carryConnect[6]
*138 carryConnect[5]
*139 carryConnect[4]
*140 carryConnect[3]
*141 carryConnect[2]
*142 carryConnect[1]
*143 carryConnect[0]
*144 ST/sigMatrix\[0\]\[63\]
*145 ST/sigMatrix\[0\]\[62\]
*146 ST/sigMatrix\[0\]\[61\]
*147 ST/sigMatrix\[0\]\[60\]
*148 ST/sigMatrix\[0\]\[59\]
*149 ST/sigMatrix\[0\]\[58\]
*150 ST/sigMatrix\[0\]\[57\]
*151 ST/sigMatrix\[0\]\[56\]
*152 ST/sigMatrix\[0\]\[55\]
*153 ST/sigMatrix\[0\]\[54\]
*154 ST/sigMatrix\[0\]\[53\]
*155 ST/sigMatrix\[0\]\[52\]
*156 ST/sigMatrix\[0\]\[51\]
*157 ST/sigMatrix\[0\]\[50\]
*158 ST/sigMatrix\[0\]\[49\]
*159 ST/sigMatrix\[0\]\[48\]
*160 ST/sigMatrix\[0\]\[47\]
*161 ST/sigMatrix\[0\]\[46\]
*162 ST/sigMatrix\[0\]\[45\]
*163 ST/sigMatrix\[0\]\[44\]
*164 ST/sigMatrix\[0\]\[43\]
*165 ST/sigMatrix\[0\]\[42\]
*166 ST/sigMatrix\[0\]\[41\]
*167 ST/sigMatrix\[0\]\[40\]
*168 ST/sigMatrix\[0\]\[39\]
*169 ST/sigMatrix\[0\]\[38\]
*170 ST/sigMatrix\[0\]\[37\]
*171 ST/sigMatrix\[0\]\[36\]
*172 ST/sigMatrix\[0\]\[35\]
*173 ST/sigMatrix\[0\]\[34\]
*174 ST/sigMatrix\[0\]\[33\]
*175 ST/sigMatrix\[0\]\[32\]
*176 ST/sigMatrix\[0\]\[31\]
*177 ST/sigMatrix\[0\]\[30\]
*178 ST/sigMatrix\[0\]\[29\]
*179 ST/sigMatrix\[0\]\[28\]
*180 ST/sigMatrix\[0\]\[27\]
*181 ST/sigMatrix\[0\]\[26\]
*182 ST/sigMatrix\[0\]\[25\]
*183 ST/sigMatrix\[0\]\[24\]
*184 ST/sigMatrix\[0\]\[23\]
*185 ST/sigMatrix\[0\]\[22\]
*186 ST/sigMatrix\[0\]\[21\]
*187 ST/sigMatrix\[0\]\[20\]
*188 ST/sigMatrix\[0\]\[19\]
*189 ST/sigMatrix\[0\]\[18\]
*190 ST/sigMatrix\[0\]\[17\]
*191 ST/sigMatrix\[0\]\[16\]
*192 ST/sigMatrix\[0\]\[15\]
*193 ST/sigMatrix\[0\]\[14\]
*194 ST/sigMatrix\[0\]\[13\]
*195 ST/sigMatrix\[0\]\[12\]
*196 ST/sigMatrix\[0\]\[11\]
*197 ST/sigMatrix\[0\]\[10\]
*198 ST/sigMatrix\[0\]\[9\]
*199 ST/sigMatrix\[0\]\[8\]
*200 ST/sigMatrix\[0\]\[7\]
*201 ST/sigMatrix\[0\]\[6\]
*202 ST/sigMatrix\[0\]\[5\]
*203 ST/sigMatrix\[0\]\[4\]
*204 ST/sigMatrix\[0\]\[3\]
*205 ST/sigMatrix\[0\]\[2\]
*206 ST/sigMatrix\[0\]\[0\]
*207 ST/sigMatrix\[1\]\[63\]
*208 ST/sigMatrix\[1\]\[62\]
*209 ST/sigMatrix\[1\]\[55\]
*210 ST/sigMatrix\[1\]\[54\]
*211 ST/sigMatrix\[1\]\[47\]
*212 ST/sigMatrix\[1\]\[46\]
*213 ST/sigMatrix\[1\]\[39\]
*214 ST/sigMatrix\[1\]\[38\]
*215 ST/sigMatrix\[1\]\[31\]
*216 ST/sigMatrix\[1\]\[30\]
*217 ST/sigMatrix\[1\]\[23\]
*218 ST/sigMatrix\[1\]\[22\]
*219 ST/sigMatrix\[1\]\[15\]
*220 ST/sigMatrix\[1\]\[14\]
*221 ST/sigMatrix\[2\]\[63\]
*222 ST/sigMatrix\[2\]\[62\]
*223 ST/sigMatrix\[2\]\[47\]
*224 ST/sigMatrix\[2\]\[46\]
*225 ST/sigMatrix\[2\]\[31\]
*226 ST/sigMatrix\[2\]\[30\]
*227 ST/sigMatrix\[3\]\[63\]
*228 ST/sigMatrix\[3\]\[62\]
*229 ST/sigMatrix\[3\]\[55\]
*230 ST/sigMatrix\[3\]\[54\]
*231 ST/PGNetwork_1/SpecBlock_0/g1p1[1]
*232 ST/PGNetwork_1/SpecBlock_0/g1p1[0]
*233 ST/PGNetwork_1/SpecBlock_0/GGBlock/n3
*234 ST/PGNetwork_1/PGBlock_3/n1
*235 ST/PGNetwork_1/PGBlock_23/n2
*236 ST/ST_row1And2_1/TBS_0/G_right_block_out
*237 ST/ST_row1And2_1/TBS_0/PG_left_block_out[1]
*238 ST/ST_row1And2_1/TBS_0/PG_left_block_out[0]
*239 ST/ST_row1And2_1/TBS_0/PG_1/n3
*240 ST/ST_row1And2_1/TBS_0/G_1/n3
*241 ST/ST_row1And2_1/TBS_0/G_2/n3
*242 ST/ST_row1And2_1/TB_1/PG_left_block_out[1]
*243 ST/ST_row1And2_1/TB_1/PG_left_block_out[0]
*244 ST/ST_row1And2_1/TB_1/PG_right_block_out[1]
*245 ST/ST_row1And2_1/TB_1/PG_right_block_out[0]
*246 ST/ST_row1And2_1/TB_1/PG_1/n3
*247 ST/ST_row1And2_1/TB_1/PG_2/n3
*248 ST/ST_row1And2_1/TB_1/PG_3/n3
*249 ST/ST_row1And2_1/TB_2/PG_left_block_out[1]
*250 ST/ST_row1And2_1/TB_2/PG_left_block_out[0]
*251 ST/ST_row1And2_1/TB_2/PG_right_block_out[1]
*252 ST/ST_row1And2_1/TB_2/PG_right_block_out[0]
*253 ST/ST_row1And2_1/TB_2/PG_1/n3
*254 ST/ST_row1And2_1/TB_2/PG_2/n4
*255 ST/ST_row1And2_1/TB_2/PG_3/n3
*256 ST/ST_row1And2_1/TB_3/PG_left_block_out[1]
*257 ST/ST_row1And2_1/TB_3/PG_left_block_out[0]
*258 ST/ST_row1And2_1/TB_3/PG_right_block_out[1]
*259 ST/ST_row1And2_1/TB_3/PG_right_block_out[0]
*260 ST/ST_row1And2_1/TB_3/PG_1/n3
*261 ST/ST_row1And2_1/TB_3/PG_2/n3
*262 ST/ST_row1And2_1/TB_3/PG_3/n3
*263 ST/ST_row1And2_1/TB_4/PG_left_block_out[1]
*264 ST/ST_row1And2_1/TB_4/PG_left_block_out[0]
*265 ST/ST_row1And2_1/TB_4/PG_right_block_out[1]
*266 ST/ST_row1And2_1/TB_4/PG_right_block_out[0]
*267 ST/ST_row1And2_1/TB_4/PG_1/n3
*268 ST/ST_row1And2_1/TB_4/PG_2/n3
*269 ST/ST_row1And2_1/TB_4/PG_3/n3
*270 ST/ST_row1And2_1/TB_5/PG_left_block_out[1]
*271 ST/ST_row1And2_1/TB_5/PG_left_block_out[0]
*272 ST/ST_row1And2_1/TB_5/PG_right_block_out[1]
*273 ST/ST_row1And2_1/TB_5/PG_right_block_out[0]
*274 ST/ST_row1And2_1/TB_5/PG_1/n3
*275 ST/ST_row1And2_1/TB_5/PG_2/n3
*276 ST/ST_row1And2_1/TB_5/PG_3/n3
*277 ST/ST_row1And2_1/TB_6/PG_left_block_out[1]
*278 ST/ST_row1And2_1/TB_6/PG_left_block_out[0]
*279 ST/ST_row1And2_1/TB_6/PG_right_block_out[1]
*280 ST/ST_row1And2_1/TB_6/PG_right_block_out[0]
*281 ST/ST_row1And2_1/TB_6/PG_1/n3
*282 ST/ST_row1And2_1/TB_6/PG_2/n3
*283 ST/ST_row1And2_1/TB_6/PG_3/n3
*284 ST/ST_row1And2_1/TB_7/PG_left_block_out[1]
*285 ST/ST_row1And2_1/TB_7/PG_left_block_out[0]
*286 ST/ST_row1And2_1/TB_7/PG_right_block_out[1]
*287 ST/ST_row1And2_1/TB_7/PG_right_block_out[0]
*288 ST/ST_row1And2_1/TB_7/PG_1/n3
*289 ST/ST_row1And2_1/TB_7/PG_2/n3
*290 ST/ST_row1And2_1/TB_7/PG_3/n3
*291 ST/G_1_0_0_0/n2
*292 ST/PG_1_0_1_0/n2
*293 ST/PG_1_0_2_0/n3
*294 ST/PG_1_0_3_0/n3
*295 ST/G_1_1_0_0/n3
*296 ST/G_1_1_0_1/n3
*297 ST/PG_1_1_1_0/n3
*298 ST/PG_1_1_1_1/n3
*299 ST/G_1_2_0_0/n3
*300 ST/G_1_2_0_1/n3
*301 ST/G_1_2_0_2/n3
*302 ST/G_1_2_0_3/n3
*303 CSSG/CSB_0/RCA1toMux[3]
*304 CSSG/CSB_0/RCA1toMux[2]
*305 CSSG/CSB_0/RCA1toMux[1]
*306 CSSG/CSB_0/RCA1toMux[0]
*307 CSSG/CSB_0/RCA2toMux[3]
*308 CSSG/CSB_0/RCA2toMux[2]
*309 CSSG/CSB_0/RCA2toMux[1]
*310 CSSG/CSB_0/RCA2toMux[0]
*311 CSSG/CSB_0/RCA_1/Co
*312 CSSG/CSB_0/RCA_1/CTMP[3]
*313 CSSG/CSB_0/RCA_1/CTMP[2]
*314 CSSG/CSB_0/RCA_1/CTMP[1]
*315 CSSG/CSB_0/RCA_1/FAI_1/n2
*316 CSSG/CSB_0/RCA_1/FAI_1/n3
*317 CSSG/CSB_0/RCA_1/FAI_2/n4
*318 CSSG/CSB_0/RCA_1/FAI_2/n5
*319 CSSG/CSB_0/RCA_1/FAI_3/n4
*320 CSSG/CSB_0/RCA_1/FAI_3/n5
*321 CSSG/CSB_0/RCA_1/FAI_4/n4
*322 CSSG/CSB_0/RCA_1/FAI_4/n5
*323 CSSG/CSB_0/RCA_2/Co
*324 CSSG/CSB_0/RCA_2/CTMP[3]
*325 CSSG/CSB_0/RCA_2/CTMP[2]
*326 CSSG/CSB_0/RCA_2/CTMP[1]
*327 CSSG/CSB_0/RCA_2/FAI_1/n5
*328 CSSG/CSB_0/RCA_2/FAI_1/n6
*329 CSSG/CSB_0/RCA_2/FAI_2/n4
*330 CSSG/CSB_0/RCA_2/FAI_2/n5
*331 CSSG/CSB_0/RCA_2/FAI_3/n4
*332 CSSG/CSB_0/RCA_2/FAI_3/n5
*333 CSSG/CSB_0/RCA_2/FAI_4/n4
*334 CSSG/CSB_0/RCA_2/FAI_4/n5
*335 CSSG/CSB_0/MUX21_1/n6
*336 CSSG/CSB_0/MUX21_1/n7
*337 CSSG/CSB_0/MUX21_1/n8
*338 CSSG/CSB_0/MUX21_1/n9
*339 CSSG/CSB_0/MUX21_1/n5
*340 CSSG/CSB_1/RCA1toMux[3]
*341 CSSG/CSB_1/RCA1toMux[2]
*342 CSSG/CSB_1/RCA1toMux[1]
*343 CSSG/CSB_1/RCA1toMux[0]
*344 CSSG/CSB_1/RCA2toMux[3]
*345 CSSG/CSB_1/RCA2toMux[2]
*346 CSSG/CSB_1/RCA2toMux[1]
*347 CSSG/CSB_1/RCA2toMux[0]
*348 CSSG/CSB_1/RCA_1/Co
*349 CSSG/CSB_1/RCA_1/CTMP[3]
*350 CSSG/CSB_1/RCA_1/CTMP[2]
*351 CSSG/CSB_1/RCA_1/CTMP[1]
*352 CSSG/CSB_1/RCA_1/FAI_1/n4
*353 CSSG/CSB_1/RCA_1/FAI_1/n5
*354 CSSG/CSB_1/RCA_1/FAI_2/n4
*355 CSSG/CSB_1/RCA_1/FAI_2/n5
*356 CSSG/CSB_1/RCA_1/FAI_3/n4
*357 CSSG/CSB_1/RCA_1/FAI_3/n5
*358 CSSG/CSB_1/RCA_1/FAI_4/n4
*359 CSSG/CSB_1/RCA_1/FAI_4/n5
*360 CSSG/CSB_1/RCA_2/Co
*361 CSSG/CSB_1/RCA_2/CTMP[3]
*362 CSSG/CSB_1/RCA_2/CTMP[2]
*363 CSSG/CSB_1/RCA_2/CTMP[1]
*364 CSSG/CSB_1/RCA_2/FAI_1/n4
*365 CSSG/CSB_1/RCA_2/FAI_1/n5
*366 CSSG/CSB_1/RCA_2/FAI_2/n4
*367 CSSG/CSB_1/RCA_2/FAI_2/n5
*368 CSSG/CSB_1/RCA_2/FAI_3/n4
*369 CSSG/CSB_1/RCA_2/FAI_3/n5
*370 CSSG/CSB_1/RCA_2/FAI_4/n4
*371 CSSG/CSB_1/RCA_2/FAI_4/n5
*372 CSSG/CSB_1/MUX21_1/n10
*373 CSSG/CSB_1/MUX21_1/n11
*374 CSSG/CSB_1/MUX21_1/n12
*375 CSSG/CSB_1/MUX21_1/n13
*376 CSSG/CSB_1/MUX21_1/n14
*377 CSSG/CSB_2/RCA1toMux[3]
*378 CSSG/CSB_2/RCA1toMux[2]
*379 CSSG/CSB_2/RCA1toMux[1]
*380 CSSG/CSB_2/RCA1toMux[0]
*381 CSSG/CSB_2/RCA2toMux[3]
*382 CSSG/CSB_2/RCA2toMux[2]
*383 CSSG/CSB_2/RCA2toMux[1]
*384 CSSG/CSB_2/RCA2toMux[0]
*385 CSSG/CSB_2/RCA_1/Co
*386 CSSG/CSB_2/RCA_1/CTMP[3]
*387 CSSG/CSB_2/RCA_1/CTMP[2]
*388 CSSG/CSB_2/RCA_1/CTMP[1]
*389 CSSG/CSB_2/RCA_1/FAI_1/n4
*390 CSSG/CSB_2/RCA_1/FAI_1/n5
*391 CSSG/CSB_2/RCA_1/FAI_2/n4
*392 CSSG/CSB_2/RCA_1/FAI_2/n5
*393 CSSG/CSB_2/RCA_1/FAI_3/n4
*394 CSSG/CSB_2/RCA_1/FAI_3/n5
*395 CSSG/CSB_2/RCA_1/FAI_4/n4
*396 CSSG/CSB_2/RCA_1/FAI_4/n5
*397 CSSG/CSB_2/RCA_2/Co
*398 CSSG/CSB_2/RCA_2/CTMP[3]
*399 CSSG/CSB_2/RCA_2/CTMP[2]
*400 CSSG/CSB_2/RCA_2/CTMP[1]
*401 CSSG/CSB_2/RCA_2/FAI_1/n4
*402 CSSG/CSB_2/RCA_2/FAI_1/n5
*403 CSSG/CSB_2/RCA_2/FAI_2/n4
*404 CSSG/CSB_2/RCA_2/FAI_2/n5
*405 CSSG/CSB_2/RCA_2/FAI_3/n4
*406 CSSG/CSB_2/RCA_2/FAI_3/n5
*407 CSSG/CSB_2/RCA_2/FAI_4/n4
*408 CSSG/CSB_2/RCA_2/FAI_4/n5
*409 CSSG/CSB_2/MUX21_1/n10
*410 CSSG/CSB_2/MUX21_1/n11
*411 CSSG/CSB_2/MUX21_1/n12
*412 CSSG/CSB_2/MUX21_1/n13
*413 CSSG/CSB_2/MUX21_1/n14
*414 CSSG/CSB_3/RCA1toMux[3]
*415 CSSG/CSB_3/RCA1toMux[2]
*416 CSSG/CSB_3/RCA1toMux[1]
*417 CSSG/CSB_3/RCA1toMux[0]
*418 CSSG/CSB_3/RCA2toMux[3]
*419 CSSG/CSB_3/RCA2toMux[2]
*420 CSSG/CSB_3/RCA2toMux[1]
*421 CSSG/CSB_3/RCA2toMux[0]
*422 CSSG/CSB_3/RCA_1/Co
*423 CSSG/CSB_3/RCA_1/CTMP[3]
*424 CSSG/CSB_3/RCA_1/CTMP[2]
*425 CSSG/CSB_3/RCA_1/CTMP[1]
*426 CSSG/CSB_3/RCA_1/FAI_1/n4
*427 CSSG/CSB_3/RCA_1/FAI_1/n5
*428 CSSG/CSB_3/RCA_1/FAI_2/n4
*429 CSSG/CSB_3/RCA_1/FAI_2/n5
*430 CSSG/CSB_3/RCA_1/FAI_3/n4
*431 CSSG/CSB_3/RCA_1/FAI_3/n5
*432 CSSG/CSB_3/RCA_1/FAI_4/n4
*433 CSSG/CSB_3/RCA_1/FAI_4/n5
*434 CSSG/CSB_3/RCA_2/Co
*435 CSSG/CSB_3/RCA_2/CTMP[3]
*436 CSSG/CSB_3/RCA_2/CTMP[2]
*437 CSSG/CSB_3/RCA_2/CTMP[1]
*438 CSSG/CSB_3/RCA_2/FAI_1/n6
*439 CSSG/CSB_3/RCA_2/FAI_1/n7
*440 CSSG/CSB_3/RCA_2/FAI_2/n4
*441 CSSG/CSB_3/RCA_2/FAI_2/n5
*442 CSSG/CSB_3/RCA_2/FAI_3/n4
*443 CSSG/CSB_3/RCA_2/FAI_3/n5
*444 CSSG/CSB_3/RCA_2/FAI_4/n4
*445 CSSG/CSB_3/RCA_2/FAI_4/n5
*446 CSSG/CSB_3/MUX21_1/n11
*447 CSSG/CSB_3/MUX21_1/n12
*448 CSSG/CSB_3/MUX21_1/n13
*449 CSSG/CSB_3/MUX21_1/n14
*450 CSSG/CSB_4/RCA1toMux[3]
*451 CSSG/CSB_4/RCA1toMux[2]
*452 CSSG/CSB_4/RCA1toMux[1]
*453 CSSG/CSB_4/RCA1toMux[0]
*454 CSSG/CSB_4/RCA2toMux[3]
*455 CSSG/CSB_4/RCA2toMux[2]
*456 CSSG/CSB_4/RCA2toMux[1]
*457 CSSG/CSB_4/RCA2toMux[0]
*458 CSSG/CSB_4/RCA_1/Co
*459 CSSG/CSB_4/RCA_1/CTMP[3]
*460 CSSG/CSB_4/RCA_1/CTMP[2]
*461 CSSG/CSB_4/RCA_1/CTMP[1]
*462 CSSG/CSB_4/RCA_1/FAI_1/n4
*463 CSSG/CSB_4/RCA_1/FAI_1/n5
*464 CSSG/CSB_4/RCA_1/FAI_2/n4
*465 CSSG/CSB_4/RCA_1/FAI_2/n5
*466 CSSG/CSB_4/RCA_1/FAI_3/n4
*467 CSSG/CSB_4/RCA_1/FAI_3/n5
*468 CSSG/CSB_4/RCA_1/FAI_4/n4
*469 CSSG/CSB_4/RCA_1/FAI_4/n5
*470 CSSG/CSB_4/RCA_2/Co
*471 CSSG/CSB_4/RCA_2/CTMP[3]
*472 CSSG/CSB_4/RCA_2/CTMP[2]
*473 CSSG/CSB_4/RCA_2/CTMP[1]
*474 CSSG/CSB_4/RCA_2/FAI_1/n4
*475 CSSG/CSB_4/RCA_2/FAI_1/n5
*476 CSSG/CSB_4/RCA_2/FAI_2/n4
*477 CSSG/CSB_4/RCA_2/FAI_2/n5
*478 CSSG/CSB_4/RCA_2/FAI_3/n4
*479 CSSG/CSB_4/RCA_2/FAI_3/n5
*480 CSSG/CSB_4/RCA_2/FAI_4/n4
*481 CSSG/CSB_4/RCA_2/FAI_4/n5
*482 CSSG/CSB_4/MUX21_1/n8
*483 CSSG/CSB_4/MUX21_1/net2872
*484 CSSG/CSB_4/MUX21_1/n5
*485 CSSG/CSB_4/MUX21_1/n9
*486 CSSG/CSB_4/MUX21_1/n10
*487 CSSG/CSB_4/MUX21_1/n11
*488 CSSG/CSB_5/RCA1toMux[3]
*489 CSSG/CSB_5/RCA1toMux[2]
*490 CSSG/CSB_5/RCA1toMux[1]
*491 CSSG/CSB_5/RCA1toMux[0]
*492 CSSG/CSB_5/RCA2toMux[3]
*493 CSSG/CSB_5/RCA2toMux[2]
*494 CSSG/CSB_5/RCA2toMux[1]
*495 CSSG/CSB_5/RCA2toMux[0]
*496 CSSG/CSB_5/RCA_1/Co
*497 CSSG/CSB_5/RCA_1/CTMP[3]
*498 CSSG/CSB_5/RCA_1/CTMP[2]
*499 CSSG/CSB_5/RCA_1/CTMP[1]
*500 CSSG/CSB_5/RCA_1/FAI_1/n4
*501 CSSG/CSB_5/RCA_1/FAI_1/n5
*502 CSSG/CSB_5/RCA_1/FAI_2/n4
*503 CSSG/CSB_5/RCA_1/FAI_2/n5
*504 CSSG/CSB_5/RCA_1/FAI_3/n4
*505 CSSG/CSB_5/RCA_1/FAI_3/n5
*506 CSSG/CSB_5/RCA_1/FAI_4/n4
*507 CSSG/CSB_5/RCA_1/FAI_4/n5
*508 CSSG/CSB_5/RCA_2/Co
*509 CSSG/CSB_5/RCA_2/CTMP[3]
*510 CSSG/CSB_5/RCA_2/CTMP[2]
*511 CSSG/CSB_5/RCA_2/CTMP[1]
*512 CSSG/CSB_5/RCA_2/FAI_1/n4
*513 CSSG/CSB_5/RCA_2/FAI_1/n5
*514 CSSG/CSB_5/RCA_2/FAI_2/n4
*515 CSSG/CSB_5/RCA_2/FAI_2/n5
*516 CSSG/CSB_5/RCA_2/FAI_3/n4
*517 CSSG/CSB_5/RCA_2/FAI_3/n5
*518 CSSG/CSB_5/RCA_2/FAI_4/n4
*519 CSSG/CSB_5/RCA_2/FAI_4/n5
*520 CSSG/CSB_6/RCA1toMux[3]
*521 CSSG/CSB_6/RCA1toMux[2]
*522 CSSG/CSB_6/RCA1toMux[1]
*523 CSSG/CSB_6/RCA1toMux[0]
*524 CSSG/CSB_6/RCA2toMux[3]
*525 CSSG/CSB_6/RCA2toMux[2]
*526 CSSG/CSB_6/RCA2toMux[1]
*527 CSSG/CSB_6/RCA2toMux[0]
*528 CSSG/CSB_6/RCA_1/Co
*529 CSSG/CSB_6/RCA_1/CTMP[3]
*530 CSSG/CSB_6/RCA_1/CTMP[2]
*531 CSSG/CSB_6/RCA_1/CTMP[1]
*532 CSSG/CSB_6/RCA_1/FAI_1/n4
*533 CSSG/CSB_6/RCA_1/FAI_1/n5
*534 CSSG/CSB_6/RCA_1/FAI_2/n4
*535 CSSG/CSB_6/RCA_1/FAI_2/n5
*536 CSSG/CSB_6/RCA_1/FAI_3/n4
*537 CSSG/CSB_6/RCA_1/FAI_3/n5
*538 CSSG/CSB_6/RCA_1/FAI_4/n4
*539 CSSG/CSB_6/RCA_1/FAI_4/n5
*540 CSSG/CSB_6/RCA_2/Co
*541 CSSG/CSB_6/RCA_2/CTMP[3]
*542 CSSG/CSB_6/RCA_2/CTMP[2]
*543 CSSG/CSB_6/RCA_2/CTMP[1]
*544 CSSG/CSB_6/RCA_2/FAI_1/n4
*545 CSSG/CSB_6/RCA_2/FAI_1/n5
*546 CSSG/CSB_6/RCA_2/FAI_2/n4
*547 CSSG/CSB_6/RCA_2/FAI_2/n5
*548 CSSG/CSB_6/RCA_2/FAI_3/n4
*549 CSSG/CSB_6/RCA_2/FAI_3/n5
*550 CSSG/CSB_6/RCA_2/FAI_4/n4
*551 CSSG/CSB_6/RCA_2/FAI_4/n5
*552 CSSG/CSB_7/RCA1toMux[3]
*553 CSSG/CSB_7/RCA1toMux[2]
*554 CSSG/CSB_7/RCA1toMux[1]
*555 CSSG/CSB_7/RCA1toMux[0]
*556 CSSG/CSB_7/RCA2toMux[3]
*557 CSSG/CSB_7/RCA2toMux[2]
*558 CSSG/CSB_7/RCA2toMux[1]
*559 CSSG/CSB_7/RCA2toMux[0]
*560 CSSG/CSB_7/RCA_1/Co
*561 CSSG/CSB_7/RCA_1/CTMP[3]
*562 CSSG/CSB_7/RCA_1/CTMP[2]
*563 CSSG/CSB_7/RCA_1/CTMP[1]
*564 CSSG/CSB_7/RCA_1/FAI_1/n4
*565 CSSG/CSB_7/RCA_1/FAI_1/n5
*566 CSSG/CSB_7/RCA_1/FAI_2/n4
*567 CSSG/CSB_7/RCA_1/FAI_2/n5
*568 CSSG/CSB_7/RCA_1/FAI_3/n4
*569 CSSG/CSB_7/RCA_1/FAI_3/n5
*570 CSSG/CSB_7/RCA_1/FAI_4/n4
*571 CSSG/CSB_7/RCA_1/FAI_4/n5
*572 CSSG/CSB_7/RCA_2/Co
*573 CSSG/CSB_7/RCA_2/CTMP[3]
*574 CSSG/CSB_7/RCA_2/CTMP[2]
*575 CSSG/CSB_7/RCA_2/CTMP[1]
*576 CSSG/CSB_7/RCA_2/FAI_1/n5
*577 CSSG/CSB_7/RCA_2/FAI_1/n6
*578 CSSG/CSB_7/RCA_2/FAI_2/n4
*579 CSSG/CSB_7/RCA_2/FAI_2/n5
*580 CSSG/CSB_7/RCA_2/FAI_3/n4
*581 CSSG/CSB_7/RCA_2/FAI_3/n5
*582 CSSG/CSB_7/RCA_2/FAI_4/n4
*583 CSSG/CSB_7/RCA_2/FAI_4/n5
*584 FE_DBTC0_B_0
*585 ST/PGNetwork_1/SpecBlock_0/PGBlock/U2
*586 ST/PGNetwork_1/SpecBlock_0/PGBlock/U1
*587 ST/PGNetwork_1/SpecBlock_0/GGBlock/U1
*588 ST/PGNetwork_1/SpecBlock_0/GGBlock/U2
*589 ST/PGNetwork_1/PGBlock_1/U2
*590 ST/PGNetwork_1/PGBlock_1/U1
*591 ST/PGNetwork_1/PGBlock_2/U2
*592 ST/PGNetwork_1/PGBlock_2/U1
*593 ST/PGNetwork_1/PGBlock_3/U1
*594 ST/PGNetwork_1/PGBlock_3/U2
*595 ST/PGNetwork_1/PGBlock_3/U3
*596 ST/PGNetwork_1/PGBlock_4/U2
*597 ST/PGNetwork_1/PGBlock_4/U1
*598 ST/PGNetwork_1/PGBlock_5/U2
*599 ST/PGNetwork_1/PGBlock_5/U1
*600 ST/PGNetwork_1/PGBlock_6/U2
*601 ST/PGNetwork_1/PGBlock_6/U1
*602 ST/PGNetwork_1/PGBlock_7/U2
*603 ST/PGNetwork_1/PGBlock_7/U1
*604 ST/PGNetwork_1/PGBlock_8/U2
*605 ST/PGNetwork_1/PGBlock_8/U1
*606 ST/PGNetwork_1/PGBlock_9/U2
*607 ST/PGNetwork_1/PGBlock_9/U3
*608 ST/PGNetwork_1/PGBlock_10/U2
*609 ST/PGNetwork_1/PGBlock_10/U1
*610 ST/PGNetwork_1/PGBlock_11/U2
*611 ST/PGNetwork_1/PGBlock_11/U1
*612 ST/PGNetwork_1/PGBlock_12/U2
*613 ST/PGNetwork_1/PGBlock_12/U1
*614 ST/PGNetwork_1/PGBlock_13/U2
*615 ST/PGNetwork_1/PGBlock_13/U1
*616 ST/PGNetwork_1/PGBlock_14/U2
*617 ST/PGNetwork_1/PGBlock_14/U1
*618 ST/PGNetwork_1/PGBlock_15/U2
*619 ST/PGNetwork_1/PGBlock_15/U1
*620 ST/PGNetwork_1/PGBlock_16/U2
*621 ST/PGNetwork_1/PGBlock_16/U1
*622 ST/PGNetwork_1/PGBlock_17/U2
*623 ST/PGNetwork_1/PGBlock_17/U1
*624 ST/PGNetwork_1/PGBlock_18/U2
*625 ST/PGNetwork_1/PGBlock_18/U1
*626 ST/PGNetwork_1/PGBlock_19/U2
*627 ST/PGNetwork_1/PGBlock_19/U1
*628 ST/PGNetwork_1/PGBlock_20/U2
*629 ST/PGNetwork_1/PGBlock_20/U1
*630 ST/PGNetwork_1/PGBlock_21/U2
*631 ST/PGNetwork_1/PGBlock_21/U1
*632 ST/PGNetwork_1/PGBlock_22/U2
*633 ST/PGNetwork_1/PGBlock_22/U1
*634 ST/PGNetwork_1/PGBlock_23/U1
*635 ST/PGNetwork_1/PGBlock_23/U2
*636 ST/PGNetwork_1/PGBlock_23/U3
*637 ST/PGNetwork_1/PGBlock_24/U2
*638 ST/PGNetwork_1/PGBlock_24/U1
*639 ST/PGNetwork_1/PGBlock_25/U2
*640 ST/PGNetwork_1/PGBlock_25/U1
*641 ST/PGNetwork_1/PGBlock_26/U2
*642 ST/PGNetwork_1/PGBlock_26/U1
*643 ST/PGNetwork_1/PGBlock_27/U2
*644 ST/PGNetwork_1/PGBlock_27/U1
*645 ST/PGNetwork_1/PGBlock_28/U2
*646 ST/PGNetwork_1/PGBlock_28/U1
*647 ST/PGNetwork_1/PGBlock_29/U2
*648 ST/PGNetwork_1/PGBlock_29/U1
*649 ST/PGNetwork_1/PGBlock_30/U2
*650 ST/PGNetwork_1/PGBlock_30/U1
*651 ST/PGNetwork_1/PGBlock_31/U2
*652 ST/PGNetwork_1/PGBlock_31/U1
*653 ST/ST_row1And2_1/TBS_0/PG_1/U1
*654 ST/ST_row1And2_1/TBS_0/PG_1/U2
*655 ST/ST_row1And2_1/TBS_0/PG_1/U3
*656 ST/ST_row1And2_1/TBS_0/G_1/U1
*657 ST/ST_row1And2_1/TBS_0/G_1/U2
*658 ST/ST_row1And2_1/TBS_0/G_2/U1
*659 ST/ST_row1And2_1/TBS_0/G_2/U2
*660 ST/ST_row1And2_1/TB_1/PG_1/U1
*661 ST/ST_row1And2_1/TB_1/PG_1/U2
*662 ST/ST_row1And2_1/TB_1/PG_1/U3
*663 ST/ST_row1And2_1/TB_1/PG_2/U1
*664 ST/ST_row1And2_1/TB_1/PG_2/U2
*665 ST/ST_row1And2_1/TB_1/PG_2/U3
*666 ST/ST_row1And2_1/TB_1/PG_3/U1
*667 ST/ST_row1And2_1/TB_1/PG_3/U2
*668 ST/ST_row1And2_1/TB_1/PG_3/U3
*669 ST/ST_row1And2_1/TB_2/PG_1/U1
*670 ST/ST_row1And2_1/TB_2/PG_1/U2
*671 ST/ST_row1And2_1/TB_2/PG_1/U3
*672 ST/ST_row1And2_1/TB_2/PG_2/U2
*673 ST/ST_row1And2_1/TB_2/PG_2/U3
*674 ST/ST_row1And2_1/TB_2/PG_2/U4
*675 ST/ST_row1And2_1/TB_2/PG_3/U1
*676 ST/ST_row1And2_1/TB_2/PG_3/U2
*677 ST/ST_row1And2_1/TB_2/PG_3/U3
*678 ST/ST_row1And2_1/TB_3/PG_1/U1
*679 ST/ST_row1And2_1/TB_3/PG_1/U2
*680 ST/ST_row1And2_1/TB_3/PG_1/U3
*681 ST/ST_row1And2_1/TB_3/PG_2/U1
*682 ST/ST_row1And2_1/TB_3/PG_2/U2
*683 ST/ST_row1And2_1/TB_3/PG_2/U3
*684 ST/ST_row1And2_1/TB_3/PG_3/U1
*685 ST/ST_row1And2_1/TB_3/PG_3/U2
*686 ST/ST_row1And2_1/TB_3/PG_3/U3
*687 ST/ST_row1And2_1/TB_4/PG_1/U1
*688 ST/ST_row1And2_1/TB_4/PG_1/U2
*689 ST/ST_row1And2_1/TB_4/PG_1/U3
*690 ST/ST_row1And2_1/TB_4/PG_2/U1
*691 ST/ST_row1And2_1/TB_4/PG_2/U2
*692 ST/ST_row1And2_1/TB_4/PG_2/U3
*693 ST/ST_row1And2_1/TB_4/PG_3/U1
*694 ST/ST_row1And2_1/TB_4/PG_3/U2
*695 ST/ST_row1And2_1/TB_4/PG_3/U3
*696 ST/ST_row1And2_1/TB_5/PG_1/U1
*697 ST/ST_row1And2_1/TB_5/PG_1/U2
*698 ST/ST_row1And2_1/TB_5/PG_1/U3
*699 ST/ST_row1And2_1/TB_5/PG_2/U1
*700 ST/ST_row1And2_1/TB_5/PG_2/U2
*701 ST/ST_row1And2_1/TB_5/PG_2/U3
*702 ST/ST_row1And2_1/TB_5/PG_3/U1
*703 ST/ST_row1And2_1/TB_5/PG_3/U2
*704 ST/ST_row1And2_1/TB_5/PG_3/U3
*705 ST/ST_row1And2_1/TB_6/PG_1/U1
*706 ST/ST_row1And2_1/TB_6/PG_1/U2
*707 ST/ST_row1And2_1/TB_6/PG_1/U3
*708 ST/ST_row1And2_1/TB_6/PG_2/U1
*709 ST/ST_row1And2_1/TB_6/PG_2/U2
*710 ST/ST_row1And2_1/TB_6/PG_2/U3
*711 ST/ST_row1And2_1/TB_6/PG_3/U1
*712 ST/ST_row1And2_1/TB_6/PG_3/U2
*713 ST/ST_row1And2_1/TB_6/PG_3/U3
*714 ST/ST_row1And2_1/TB_7/PG_1/U1
*715 ST/ST_row1And2_1/TB_7/PG_1/U2
*716 ST/ST_row1And2_1/TB_7/PG_1/U3
*717 ST/ST_row1And2_1/TB_7/PG_2/U1
*718 ST/ST_row1And2_1/TB_7/PG_2/U2
*719 ST/ST_row1And2_1/TB_7/PG_2/U3
*720 ST/ST_row1And2_1/TB_7/PG_3/U1
*721 ST/ST_row1And2_1/TB_7/PG_3/U2
*722 ST/ST_row1And2_1/TB_7/PG_3/U3
*723 ST/G_1_0_0_0/U1
*724 ST/G_1_0_0_0/U2
*725 ST/PG_1_0_1_0/U1
*726 ST/PG_1_0_1_0/U2
*727 ST/PG_1_0_1_0/U3
*728 ST/PG_1_0_2_0/U1
*729 ST/PG_1_0_2_0/U2
*730 ST/PG_1_0_2_0/U3
*731 ST/PG_1_0_3_0/U1
*732 ST/PG_1_0_3_0/U2
*733 ST/PG_1_0_3_0/U3
*734 ST/G_1_1_0_0/U1
*735 ST/G_1_1_0_0/U2
*736 ST/G_1_1_0_1/U1
*737 ST/G_1_1_0_1/U2
*738 ST/PG_1_1_1_0/U1
*739 ST/PG_1_1_1_0/U2
*740 ST/PG_1_1_1_0/U3
*741 ST/PG_1_1_1_1/U1
*742 ST/PG_1_1_1_1/U2
*743 ST/PG_1_1_1_1/U3
*744 ST/G_1_2_0_0/U1
*745 ST/G_1_2_0_0/U2
*746 ST/G_1_2_0_1/U1
*747 ST/G_1_2_0_1/U2
*748 ST/G_1_2_0_2/U1
*749 ST/G_1_2_0_2/U2
*750 ST/G_1_2_0_3/U1
*751 ST/G_1_2_0_3/U2
*752 CSSG/CSB_0/RCA_1/FAI_1/U3
*753 CSSG/CSB_0/RCA_1/FAI_1/U4
*754 CSSG/CSB_0/RCA_1/FAI_1/U1
*755 CSSG/CSB_0/RCA_1/FAI_1/U2
*756 CSSG/CSB_0/RCA_1/FAI_2/U3
*757 CSSG/CSB_0/RCA_1/FAI_2/U4
*758 CSSG/CSB_0/RCA_1/FAI_2/U1
*759 CSSG/CSB_0/RCA_1/FAI_2/U2
*760 CSSG/CSB_0/RCA_1/FAI_3/U3
*761 CSSG/CSB_0/RCA_1/FAI_3/U4
*762 CSSG/CSB_0/RCA_1/FAI_3/U1
*763 CSSG/CSB_0/RCA_1/FAI_3/U2
*764 CSSG/CSB_0/RCA_1/FAI_4/U3
*765 CSSG/CSB_0/RCA_1/FAI_4/U4
*766 CSSG/CSB_0/RCA_1/FAI_4/U1
*767 CSSG/CSB_0/RCA_1/FAI_4/U2
*768 CSSG/CSB_0/RCA_2/FAI_1/U3
*769 CSSG/CSB_0/RCA_2/FAI_1/U4
*770 CSSG/CSB_0/RCA_2/FAI_1/U2
*771 CSSG/CSB_0/RCA_2/FAI_1/U5
*772 CSSG/CSB_0/RCA_2/FAI_2/U3
*773 CSSG/CSB_0/RCA_2/FAI_2/U4
*774 CSSG/CSB_0/RCA_2/FAI_2/U1
*775 CSSG/CSB_0/RCA_2/FAI_2/U2
*776 CSSG/CSB_0/RCA_2/FAI_3/U3
*777 CSSG/CSB_0/RCA_2/FAI_3/U4
*778 CSSG/CSB_0/RCA_2/FAI_3/U1
*779 CSSG/CSB_0/RCA_2/FAI_3/U2
*780 CSSG/CSB_0/RCA_2/FAI_4/U3
*781 CSSG/CSB_0/RCA_2/FAI_4/U4
*782 CSSG/CSB_0/RCA_2/FAI_4/U1
*783 CSSG/CSB_0/RCA_2/FAI_4/U2
*784 CSSG/CSB_0/MUX21_1/U1
*785 CSSG/CSB_0/MUX21_1/U2
*786 CSSG/CSB_0/MUX21_1/U3
*787 CSSG/CSB_0/MUX21_1/U4
*788 CSSG/CSB_0/MUX21_1/U5
*789 CSSG/CSB_0/MUX21_1/U6
*790 CSSG/CSB_0/MUX21_1/U7
*791 CSSG/CSB_0/MUX21_1/U8
*792 CSSG/CSB_0/MUX21_1/U9
*793 CSSG/CSB_1/RCA_1/FAI_1/U3
*794 CSSG/CSB_1/RCA_1/FAI_1/U4
*795 CSSG/CSB_1/RCA_1/FAI_1/U1
*796 CSSG/CSB_1/RCA_1/FAI_1/U2
*797 CSSG/CSB_1/RCA_1/FAI_2/U3
*798 CSSG/CSB_1/RCA_1/FAI_2/U4
*799 CSSG/CSB_1/RCA_1/FAI_2/U1
*800 CSSG/CSB_1/RCA_1/FAI_2/U2
*801 CSSG/CSB_1/RCA_1/FAI_3/U3
*802 CSSG/CSB_1/RCA_1/FAI_3/U4
*803 CSSG/CSB_1/RCA_1/FAI_3/U1
*804 CSSG/CSB_1/RCA_1/FAI_3/U2
*805 CSSG/CSB_1/RCA_1/FAI_4/U3
*806 CSSG/CSB_1/RCA_1/FAI_4/U4
*807 CSSG/CSB_1/RCA_1/FAI_4/U1
*808 CSSG/CSB_1/RCA_1/FAI_4/U2
*809 CSSG/CSB_1/RCA_2/FAI_1/U3
*810 CSSG/CSB_1/RCA_2/FAI_1/U4
*811 CSSG/CSB_1/RCA_2/FAI_1/U1
*812 CSSG/CSB_1/RCA_2/FAI_1/U2
*813 CSSG/CSB_1/RCA_2/FAI_2/U3
*814 CSSG/CSB_1/RCA_2/FAI_2/U4
*815 CSSG/CSB_1/RCA_2/FAI_2/U1
*816 CSSG/CSB_1/RCA_2/FAI_2/U2
*817 CSSG/CSB_1/RCA_2/FAI_3/U3
*818 CSSG/CSB_1/RCA_2/FAI_3/U4
*819 CSSG/CSB_1/RCA_2/FAI_3/U1
*820 CSSG/CSB_1/RCA_2/FAI_3/U2
*821 CSSG/CSB_1/RCA_2/FAI_4/U3
*822 CSSG/CSB_1/RCA_2/FAI_4/U4
*823 CSSG/CSB_1/RCA_2/FAI_4/U1
*824 CSSG/CSB_1/RCA_2/FAI_4/U2
*825 CSSG/CSB_1/MUX21_1/U1
*826 CSSG/CSB_1/MUX21_1/U2
*827 CSSG/CSB_1/MUX21_1/U3
*828 CSSG/CSB_1/MUX21_1/U4
*829 CSSG/CSB_1/MUX21_1/U5
*830 CSSG/CSB_1/MUX21_1/U6
*831 CSSG/CSB_1/MUX21_1/U7
*832 CSSG/CSB_1/MUX21_1/U8
*833 CSSG/CSB_1/MUX21_1/U9
*834 CSSG/CSB_2/RCA_1/FAI_1/U3
*835 CSSG/CSB_2/RCA_1/FAI_1/U4
*836 CSSG/CSB_2/RCA_1/FAI_1/U1
*837 CSSG/CSB_2/RCA_1/FAI_1/U2
*838 CSSG/CSB_2/RCA_1/FAI_2/U3
*839 CSSG/CSB_2/RCA_1/FAI_2/U4
*840 CSSG/CSB_2/RCA_1/FAI_2/U1
*841 CSSG/CSB_2/RCA_1/FAI_2/U2
*842 CSSG/CSB_2/RCA_1/FAI_3/U3
*843 CSSG/CSB_2/RCA_1/FAI_3/U4
*844 CSSG/CSB_2/RCA_1/FAI_3/U1
*845 CSSG/CSB_2/RCA_1/FAI_3/U2
*846 CSSG/CSB_2/RCA_1/FAI_4/U3
*847 CSSG/CSB_2/RCA_1/FAI_4/U4
*848 CSSG/CSB_2/RCA_1/FAI_4/U1
*849 CSSG/CSB_2/RCA_1/FAI_4/U2
*850 CSSG/CSB_2/RCA_2/FAI_1/U3
*851 CSSG/CSB_2/RCA_2/FAI_1/U4
*852 CSSG/CSB_2/RCA_2/FAI_1/U1
*853 CSSG/CSB_2/RCA_2/FAI_1/U2
*854 CSSG/CSB_2/RCA_2/FAI_2/U3
*855 CSSG/CSB_2/RCA_2/FAI_2/U4
*856 CSSG/CSB_2/RCA_2/FAI_2/U1
*857 CSSG/CSB_2/RCA_2/FAI_2/U2
*858 CSSG/CSB_2/RCA_2/FAI_3/U3
*859 CSSG/CSB_2/RCA_2/FAI_3/U4
*860 CSSG/CSB_2/RCA_2/FAI_3/U1
*861 CSSG/CSB_2/RCA_2/FAI_3/U2
*862 CSSG/CSB_2/RCA_2/FAI_4/U3
*863 CSSG/CSB_2/RCA_2/FAI_4/U4
*864 CSSG/CSB_2/RCA_2/FAI_4/U1
*865 CSSG/CSB_2/RCA_2/FAI_4/U2
*866 CSSG/CSB_2/MUX21_1/U1
*867 CSSG/CSB_2/MUX21_1/U2
*868 CSSG/CSB_2/MUX21_1/U3
*869 CSSG/CSB_2/MUX21_1/U4
*870 CSSG/CSB_2/MUX21_1/U5
*871 CSSG/CSB_2/MUX21_1/U6
*872 CSSG/CSB_2/MUX21_1/U7
*873 CSSG/CSB_2/MUX21_1/U8
*874 CSSG/CSB_2/MUX21_1/U9
*875 CSSG/CSB_3/RCA_1/FAI_1/U3
*876 CSSG/CSB_3/RCA_1/FAI_1/U4
*877 CSSG/CSB_3/RCA_1/FAI_1/U1
*878 CSSG/CSB_3/RCA_1/FAI_1/U2
*879 CSSG/CSB_3/RCA_1/FAI_2/U3
*880 CSSG/CSB_3/RCA_1/FAI_2/U4
*881 CSSG/CSB_3/RCA_1/FAI_2/U1
*882 CSSG/CSB_3/RCA_1/FAI_2/U2
*883 CSSG/CSB_3/RCA_1/FAI_3/U3
*884 CSSG/CSB_3/RCA_1/FAI_3/U4
*885 CSSG/CSB_3/RCA_1/FAI_3/U1
*886 CSSG/CSB_3/RCA_1/FAI_3/U2
*887 CSSG/CSB_3/RCA_1/FAI_4/U3
*888 CSSG/CSB_3/RCA_1/FAI_4/U4
*889 CSSG/CSB_3/RCA_1/FAI_4/U1
*890 CSSG/CSB_3/RCA_1/FAI_4/U2
*891 CSSG/CSB_3/RCA_2/FAI_1/U3
*892 CSSG/CSB_3/RCA_2/FAI_1/U4
*893 CSSG/CSB_3/RCA_2/FAI_1/U5
*894 CSSG/CSB_3/RCA_2/FAI_1/U6
*895 CSSG/CSB_3/RCA_2/FAI_2/U3
*896 CSSG/CSB_3/RCA_2/FAI_2/U4
*897 CSSG/CSB_3/RCA_2/FAI_2/U1
*898 CSSG/CSB_3/RCA_2/FAI_2/U2
*899 CSSG/CSB_3/RCA_2/FAI_3/U3
*900 CSSG/CSB_3/RCA_2/FAI_3/U4
*901 CSSG/CSB_3/RCA_2/FAI_3/U1
*902 CSSG/CSB_3/RCA_2/FAI_3/U2
*903 CSSG/CSB_3/RCA_2/FAI_4/U3
*904 CSSG/CSB_3/RCA_2/FAI_4/U4
*905 CSSG/CSB_3/RCA_2/FAI_4/U1
*906 CSSG/CSB_3/RCA_2/FAI_4/U2
*907 CSSG/CSB_3/MUX21_1/FE_DBTC1_carryConnect_2
*908 CSSG/CSB_3/MUX21_1/U3
*909 CSSG/CSB_3/MUX21_1/U4
*910 CSSG/CSB_3/MUX21_1/U5
*911 CSSG/CSB_3/MUX21_1/U6
*912 CSSG/CSB_3/MUX21_1/U7
*913 CSSG/CSB_3/MUX21_1/U8
*914 CSSG/CSB_3/MUX21_1/U9
*915 CSSG/CSB_3/MUX21_1/U10
*916 CSSG/CSB_4/RCA_1/FAI_1/U3
*917 CSSG/CSB_4/RCA_1/FAI_1/U4
*918 CSSG/CSB_4/RCA_1/FAI_1/U1
*919 CSSG/CSB_4/RCA_1/FAI_1/U2
*920 CSSG/CSB_4/RCA_1/FAI_2/U3
*921 CSSG/CSB_4/RCA_1/FAI_2/U4
*922 CSSG/CSB_4/RCA_1/FAI_2/U1
*923 CSSG/CSB_4/RCA_1/FAI_2/U2
*924 CSSG/CSB_4/RCA_1/FAI_3/U3
*925 CSSG/CSB_4/RCA_1/FAI_3/U4
*926 CSSG/CSB_4/RCA_1/FAI_3/U1
*927 CSSG/CSB_4/RCA_1/FAI_3/U2
*928 CSSG/CSB_4/RCA_1/FAI_4/U3
*929 CSSG/CSB_4/RCA_1/FAI_4/U4
*930 CSSG/CSB_4/RCA_1/FAI_4/U1
*931 CSSG/CSB_4/RCA_1/FAI_4/U2
*932 CSSG/CSB_4/RCA_2/FAI_1/U3
*933 CSSG/CSB_4/RCA_2/FAI_1/U4
*934 CSSG/CSB_4/RCA_2/FAI_1/U1
*935 CSSG/CSB_4/RCA_2/FAI_1/U2
*936 CSSG/CSB_4/RCA_2/FAI_2/U3
*937 CSSG/CSB_4/RCA_2/FAI_2/U4
*938 CSSG/CSB_4/RCA_2/FAI_2/U1
*939 CSSG/CSB_4/RCA_2/FAI_2/U2
*940 CSSG/CSB_4/RCA_2/FAI_3/U3
*941 CSSG/CSB_4/RCA_2/FAI_3/U4
*942 CSSG/CSB_4/RCA_2/FAI_3/U1
*943 CSSG/CSB_4/RCA_2/FAI_3/U2
*944 CSSG/CSB_4/RCA_2/FAI_4/U3
*945 CSSG/CSB_4/RCA_2/FAI_4/U4
*946 CSSG/CSB_4/RCA_2/FAI_4/U1
*947 CSSG/CSB_4/RCA_2/FAI_4/U2
*948 CSSG/CSB_4/MUX21_1/U1
*949 CSSG/CSB_4/MUX21_1/U2
*950 CSSG/CSB_4/MUX21_1/U3
*951 CSSG/CSB_4/MUX21_1/U4
*952 CSSG/CSB_4/MUX21_1/U5
*953 CSSG/CSB_4/MUX21_1/U6
*954 CSSG/CSB_4/MUX21_1/U7
*955 CSSG/CSB_4/MUX21_1/U8
*956 CSSG/CSB_4/MUX21_1/U9
*957 CSSG/CSB_4/MUX21_1/U10
*958 CSSG/CSB_5/RCA_1/FAI_1/U3
*959 CSSG/CSB_5/RCA_1/FAI_1/U4
*960 CSSG/CSB_5/RCA_1/FAI_1/U1
*961 CSSG/CSB_5/RCA_1/FAI_1/U2
*962 CSSG/CSB_5/RCA_1/FAI_2/U3
*963 CSSG/CSB_5/RCA_1/FAI_2/U4
*964 CSSG/CSB_5/RCA_1/FAI_2/U1
*965 CSSG/CSB_5/RCA_1/FAI_2/U2
*966 CSSG/CSB_5/RCA_1/FAI_3/U3
*967 CSSG/CSB_5/RCA_1/FAI_3/U4
*968 CSSG/CSB_5/RCA_1/FAI_3/U1
*969 CSSG/CSB_5/RCA_1/FAI_3/U2
*970 CSSG/CSB_5/RCA_1/FAI_4/U3
*971 CSSG/CSB_5/RCA_1/FAI_4/U4
*972 CSSG/CSB_5/RCA_1/FAI_4/U1
*973 CSSG/CSB_5/RCA_1/FAI_4/U2
*974 CSSG/CSB_5/RCA_2/FAI_1/U3
*975 CSSG/CSB_5/RCA_2/FAI_1/U4
*976 CSSG/CSB_5/RCA_2/FAI_1/U1
*977 CSSG/CSB_5/RCA_2/FAI_1/U2
*978 CSSG/CSB_5/RCA_2/FAI_2/U3
*979 CSSG/CSB_5/RCA_2/FAI_2/U4
*980 CSSG/CSB_5/RCA_2/FAI_2/U1
*981 CSSG/CSB_5/RCA_2/FAI_2/U2
*982 CSSG/CSB_5/RCA_2/FAI_3/U3
*983 CSSG/CSB_5/RCA_2/FAI_3/U4
*984 CSSG/CSB_5/RCA_2/FAI_3/U1
*985 CSSG/CSB_5/RCA_2/FAI_3/U2
*986 CSSG/CSB_5/RCA_2/FAI_4/U3
*987 CSSG/CSB_5/RCA_2/FAI_4/U4
*988 CSSG/CSB_5/RCA_2/FAI_4/U1
*989 CSSG/CSB_5/RCA_2/FAI_4/U2
*990 CSSG/CSB_5/MUX21_1/U1
*991 CSSG/CSB_5/MUX21_1/U2
*992 CSSG/CSB_5/MUX21_1/U3
*993 CSSG/CSB_5/MUX21_1/U4
*994 CSSG/CSB_6/RCA_1/FAI_1/U3
*995 CSSG/CSB_6/RCA_1/FAI_1/U4
*996 CSSG/CSB_6/RCA_1/FAI_1/U1
*997 CSSG/CSB_6/RCA_1/FAI_1/U2
*998 CSSG/CSB_6/RCA_1/FAI_2/U3
*999 CSSG/CSB_6/RCA_1/FAI_2/U4
*1000 CSSG/CSB_6/RCA_1/FAI_2/U1
*1001 CSSG/CSB_6/RCA_1/FAI_2/U2
*1002 CSSG/CSB_6/RCA_1/FAI_3/U3
*1003 CSSG/CSB_6/RCA_1/FAI_3/U4
*1004 CSSG/CSB_6/RCA_1/FAI_3/U1
*1005 CSSG/CSB_6/RCA_1/FAI_3/U2
*1006 CSSG/CSB_6/RCA_1/FAI_4/U3
*1007 CSSG/CSB_6/RCA_1/FAI_4/U4
*1008 CSSG/CSB_6/RCA_1/FAI_4/U1
*1009 CSSG/CSB_6/RCA_1/FAI_4/U2
*1010 CSSG/CSB_6/RCA_2/FAI_1/U3
*1011 CSSG/CSB_6/RCA_2/FAI_1/U4
*1012 CSSG/CSB_6/RCA_2/FAI_1/U1
*1013 CSSG/CSB_6/RCA_2/FAI_1/U2
*1014 CSSG/CSB_6/RCA_2/FAI_2/U3
*1015 CSSG/CSB_6/RCA_2/FAI_2/U4
*1016 CSSG/CSB_6/RCA_2/FAI_2/U1
*1017 CSSG/CSB_6/RCA_2/FAI_2/U2
*1018 CSSG/CSB_6/RCA_2/FAI_3/U3
*1019 CSSG/CSB_6/RCA_2/FAI_3/U4
*1020 CSSG/CSB_6/RCA_2/FAI_3/U1
*1021 CSSG/CSB_6/RCA_2/FAI_3/U2
*1022 CSSG/CSB_6/RCA_2/FAI_4/U3
*1023 CSSG/CSB_6/RCA_2/FAI_4/U4
*1024 CSSG/CSB_6/RCA_2/FAI_4/U1
*1025 CSSG/CSB_6/RCA_2/FAI_4/U2
*1026 CSSG/CSB_6/MUX21_1/U1
*1027 CSSG/CSB_6/MUX21_1/U2
*1028 CSSG/CSB_6/MUX21_1/U3
*1029 CSSG/CSB_6/MUX21_1/U4
*1030 CSSG/CSB_7/RCA_1/FAI_1/U3
*1031 CSSG/CSB_7/RCA_1/FAI_1/U4
*1032 CSSG/CSB_7/RCA_1/FAI_1/U1
*1033 CSSG/CSB_7/RCA_1/FAI_1/U2
*1034 CSSG/CSB_7/RCA_1/FAI_2/U3
*1035 CSSG/CSB_7/RCA_1/FAI_2/U4
*1036 CSSG/CSB_7/RCA_1/FAI_2/U1
*1037 CSSG/CSB_7/RCA_1/FAI_2/U2
*1038 CSSG/CSB_7/RCA_1/FAI_3/U3